/*---------------------------------------------------------------------------*\
| =========                 |                                                 |
| \\      /  F ield         | OpenFOAM: The Open Source CFD Toolbox           |
|  \\    /   O peration     | Version:  2312                                  |
|   \\  /    A nd           | Website:  www.openfoam.com                      |
|    \\/     M anipulation  |                                                 |
\*---------------------------------------------------------------------------*/
Build  : _1d8f0d55f7-20231221 OPENFOAM=2312 version=v2312
Arch   : "LSB;label=32;scalar=64"
Exec   : sclsVOFFoam
Date   : Jul 25 2024
Time   : 16:52:09
Host   : tom-Apple-Virtualization-Generic-Platform
PID    : 7436
I/O    : uncollated
Case   : /home/tom/openfoam/OpenFOAM-v2312/tutorials/multiphase/sclsVOFFoam/staticBubble
nProcs : 1
trapFpe: Floating point exception trapping enabled (FOAM_SIGFPE).
fileModificationChecking : Monitoring run-time modified files using timeStampMaster (fileModificationSkew 5, maxFileModificationPolls 20)
allowSystemOperations : Allowing user-supplied system call operations

// * * * * * * * * * * * * * * * * * * * * * * * * * * * * * * * * * * * * * //
Create time

Create mesh for time = 0


PIMPLE: Operating solver in PISO mode

Reading field p_rgh

Reading field U

Reading field psi

Reading/calculating face flux field phi

Reading transportProperties

Selecting incompressible transport model Newtonian
Selecting incompressible transport model Newtonian
Selecting turbulence model type laminar
Selecting laminar stress model Stokes

Reading g

Reading hRef
Calculating field g.h

No MRF models present

No finite volume options present
DICPCG:  Solving for pcorr, Initial residual = 0, Final residual = 0, No Iterations 0
time step continuity errors : sum local = 0, global = 0, cumulative = 0
Courant Number mean: 0 max: 0

Starting time loop

Courant Number mean: 0 max: 0
Interface Courant Number mean: 0 max: 0
deltaT = 0.00119048
Time = 0.00119048

PIMPLE: iteration 1
smoothSolver:  Solving for alpha.water, Initial residual = 0, Final residual = 0, No Iterations 0
Phase-1 volume fraction = 0.9684  Min(alpha.water) = 0  Max(alpha.water) = 1
solve the reinitialization equation

solve the reinitialization equation

MULES: Correcting alpha.water
solve the reinitialization equation

solve the reinitialization equation

MULES: Correcting alpha.water
solve the reinitialization equation

Phase-1 volume fraction = 0.9684  Min(alpha.water) = 0  Max(alpha.water) = 1
DICPCG:  Solving for p_rgh, Initial residual = 1, Final residual = 0.0344587, No Iterations 3
time step continuity errors : sum local = 0.00524206, global = 1.41039e-19, cumulative = 1.41039e-19
DICPCG:  Solving for p_rgh, Initial residual = 0.0182679, Final residual = 0.000839945, No Iterations 36
time step continuity errors : sum local = 0.00026206, global = 4.1363e-19, cumulative = 5.5467e-19
DICPCG:  Solving for p_rgh, Initial residual = 0.00148088, Final residual = 9.60895e-08, No Iterations 128
time step continuity errors : sum local = 2.93613e-08, global = -1.54188e-19, cumulative = 4.00481e-19
ExecutionTime = 0.2 s  ClockTime = 0 s

Courant Number mean: 0.0587601 max: 11.0919
Interface Courant Number mean: 0 max: 0
deltaT = 0.000107274
Time = 0.00129775

PIMPLE: iteration 1
smoothSolver:  Solving for alpha.water, Initial residual = 0.00644419, Final residual = 1.58333e-09, No Iterations 3
Phase-1 volume fraction = 0.9684  Min(alpha.water) = 1.18522e-28  Max(alpha.water) = 1
solve the reinitialization equation

solve the reinitialization equation

MULES: Correcting alpha.water
solve the reinitialization equation

solve the reinitialization equation

MULES: Correcting alpha.water
solve the reinitialization equation

Phase-1 volume fraction = 0.9684  Min(alpha.water) = 1.18522e-28  Max(alpha.water) = 1
DICPCG:  Solving for p_rgh, Initial residual = 0.819789, Final residual = 0.0264493, No Iterations 3
time step continuity errors : sum local = 7.42859e-05, global = 9.85749e-22, cumulative = 4.01467e-19
DICPCG:  Solving for p_rgh, Initial residual = 0.483055, Final residual = 0.0133466, No Iterations 3
time step continuity errors : sum local = 4.97724e-05, global = -1.66858e-20, cumulative = 3.84781e-19
DICPCG:  Solving for p_rgh, Initial residual = 0.241365, Final residual = 8.60497e-08, No Iterations 139
time step continuity errors : sum local = 2.14876e-10, global = 2.0216e-21, cumulative = 3.86803e-19
ExecutionTime = 0.25 s  ClockTime = 0 s

Courant Number mean: 0.00255384 max: 0.432872
Interface Courant Number mean: 0.000540639 max: 0.216436
deltaT = 0.000128842
Time = 0.00142659

PIMPLE: iteration 1
smoothSolver:  Solving for alpha.water, Initial residual = 0.0022185, Final residual = 1.7256e-12, No Iterations 3
Phase-1 volume fraction = 0.9684  Min(alpha.water) = 1.18522e-28  Max(alpha.water) = 1
solve the reinitialization equation

solve the reinitialization equation

MULES: Correcting alpha.water
solve the reinitialization equation

solve the reinitialization equation

MULES: Correcting alpha.water
solve the reinitialization equation

Phase-1 volume fraction = 0.9684  Min(alpha.water) = 1.18522e-28  Max(alpha.water) = 1
DICPCG:  Solving for p_rgh, Initial residual = 0.413399, Final residual = 0.0152025, No Iterations 3
time step continuity errors : sum local = 4.80411e-05, global = -1.08578e-20, cumulative = 3.75945e-19
DICPCG:  Solving for p_rgh, Initial residual = 0.10735, Final residual = 0.0052225, No Iterations 4
time step continuity errors : sum local = 1.16611e-05, global = 4.68437e-21, cumulative = 3.80629e-19
DICPCG:  Solving for p_rgh, Initial residual = 0.0242254, Final residual = 7.37378e-08, No Iterations 136
time step continuity errors : sum local = 1.53986e-10, global = 1.33889e-20, cumulative = 3.94018e-19
ExecutionTime = 0.3 s  ClockTime = 0 s

Courant Number mean: 0.002323 max: 0.341317
Interface Courant Number mean: 0.000407981 max: 0.170659
deltaT = 0.000154692
Time = 0.00158128

PIMPLE: iteration 1
smoothSolver:  Solving for alpha.water, Initial residual = 0.00141234, Final residual = 2.52661e-09, No Iterations 2
Phase-1 volume fraction = 0.9684  Min(alpha.water) = 1.18522e-28  Max(alpha.water) = 1
solve the reinitialization equation

solve the reinitialization equation

MULES: Correcting alpha.water
solve the reinitialization equation

solve the reinitialization equation

MULES: Correcting alpha.water
solve the reinitialization equation

Phase-1 volume fraction = 0.9684  Min(alpha.water) = 1.18522e-28  Max(alpha.water) = 1
DICPCG:  Solving for p_rgh, Initial residual = 0.206565, Final residual = 0.00627406, No Iterations 3
time step continuity errors : sum local = 1.74828e-05, global = -4.51274e-21, cumulative = 3.89505e-19
DICPCG:  Solving for p_rgh, Initial residual = 0.0295401, Final residual = 0.00123475, No Iterations 8
time step continuity errors : sum local = 3.22329e-06, global = 1.58679e-20, cumulative = 4.05373e-19
DICPCG:  Solving for p_rgh, Initial residual = 0.00413014, Final residual = 9.50178e-08, No Iterations 130
time step continuity errors : sum local = 2.46183e-10, global = 1.96999e-21, cumulative = 4.07343e-19
ExecutionTime = 0.36 s  ClockTime = 0 s

Courant Number mean: 0.00235947 max: 0.318449
Interface Courant Number mean: 0.000458442 max: 0.159225
deltaT = 0.000185512
Time = 0.0017668

PIMPLE: iteration 1
smoothSolver:  Solving for alpha.water, Initial residual = 0.00126162, Final residual = 2.02343e-09, No Iterations 2
Phase-1 volume fraction = 0.9684  Min(alpha.water) = 1.18522e-28  Max(alpha.water) = 1
solve the reinitialization equation

solve the reinitialization equation

MULES: Correcting alpha.water
solve the reinitialization equation

solve the reinitialization equation

MULES: Correcting alpha.water
solve the reinitialization equation

Phase-1 volume fraction = 0.9684  Min(alpha.water) = 1.18522e-28  Max(alpha.water) = 1
DICPCG:  Solving for p_rgh, Initial residual = 0.125731, Final residual = 0.00423418, No Iterations 2
time step continuity errors : sum local = 1.51087e-05, global = 9.00504e-21, cumulative = 4.16348e-19
DICPCG:  Solving for p_rgh, Initial residual = 0.017941, Final residual = 0.000889165, No Iterations 9
time step continuity errors : sum local = 3.16222e-06, global = 5.68365e-21, cumulative = 4.22032e-19
DICPCG:  Solving for p_rgh, Initial residual = 0.00253732, Final residual = 9.09566e-08, No Iterations 136
time step continuity errors : sum local = 3.21741e-10, global = 5.41897e-21, cumulative = 4.27451e-19
ExecutionTime = 0.41 s  ClockTime = 0 s

Courant Number mean: 0.00242002 max: 0.316956
Interface Courant Number mean: 0.00045313 max: 0.158478
deltaT = 0.000222273
Time = 0.00198907

PIMPLE: iteration 1
smoothSolver:  Solving for alpha.water, Initial residual = 0.0012914, Final residual = 2.18459e-09, No Iterations 2
Phase-1 volume fraction = 0.9684  Min(alpha.water) = 1.18523e-28  Max(alpha.water) = 1
solve the reinitialization equation

solve the reinitialization equation

MULES: Correcting alpha.water
solve the reinitialization equation

solve the reinitialization equation

MULES: Correcting alpha.water
solve the reinitialization equation

Phase-1 volume fraction = 0.9684  Min(alpha.water) = 1.18523e-28  Max(alpha.water) = 1
DICPCG:  Solving for p_rgh, Initial residual = 0.0955952, Final residual = 0.00443174, No Iterations 2
time step continuity errors : sum local = 2.20203e-05, global = -1.00685e-20, cumulative = 4.17382e-19
DICPCG:  Solving for p_rgh, Initial residual = 0.0142218, Final residual = 0.000553941, No Iterations 6
time step continuity errors : sum local = 2.78694e-06, global = 4.19342e-21, cumulative = 4.21576e-19
DICPCG:  Solving for p_rgh, Initial residual = 0.00190235, Final residual = 9.46584e-08, No Iterations 138
time step continuity errors : sum local = 4.74315e-10, global = 3.98533e-21, cumulative = 4.25561e-19
ExecutionTime = 0.46 s  ClockTime = 0 s

Courant Number mean: 0.0027035 max: 0.309448
Interface Courant Number mean: 0.000487036 max: 0.154724
deltaT = 0.000266727
Time = 0.0022558

PIMPLE: iteration 1
smoothSolver:  Solving for alpha.water, Initial residual = 0.00136159, Final residual = 3.0512e-09, No Iterations 2
Phase-1 volume fraction = 0.9684  Min(alpha.water) = 1.436e-28  Max(alpha.water) = 1
solve the reinitialization equation

solve the reinitialization equation

MULES: Correcting alpha.water
solve the reinitialization equation

solve the reinitialization equation

MULES: Correcting alpha.water
solve the reinitialization equation

Phase-1 volume fraction = 0.9684  Min(alpha.water) = 1.436e-28  Max(alpha.water) = 1
DICPCG:  Solving for p_rgh, Initial residual = 0.0952177, Final residual = 0.00210032, No Iterations 3
time step continuity errors : sum local = 1.2765e-05, global = -9.72879e-21, cumulative = 4.15832e-19
DICPCG:  Solving for p_rgh, Initial residual = 0.0132426, Final residual = 0.000392648, No Iterations 6
time step continuity errors : sum local = 2.4113e-06, global = 1.29101e-20, cumulative = 4.28743e-19
DICPCG:  Solving for p_rgh, Initial residual = 0.00155503, Final residual = 8.56099e-08, No Iterations 140
time step continuity errors : sum local = 5.22571e-10, global = -1.11974e-21, cumulative = 4.27623e-19
ExecutionTime = 0.52 s  ClockTime = 0 s

Courant Number mean: 0.00312946 max: 0.32806
Interface Courant Number mean: 0.000469456 max: 0.147187
deltaT = 0.000320431
Time = 0.00257623

PIMPLE: iteration 1
smoothSolver:  Solving for alpha.water, Initial residual = 0.00135738, Final residual = 5.2754e-09, No Iterations 2
Phase-1 volume fraction = 0.9684  Min(alpha.water) = 2.34384e-27  Max(alpha.water) = 1
solve the reinitialization equation

solve the reinitialization equation

MULES: Correcting alpha.water
solve the reinitialization equation

solve the reinitialization equation

MULES: Correcting alpha.water
solve the reinitialization equation

Phase-1 volume fraction = 0.9684  Min(alpha.water) = 2.34384e-27  Max(alpha.water) = 1
DICPCG:  Solving for p_rgh, Initial residual = 0.0900282, Final residual = 0.00351816, No Iterations 2
time step continuity errors : sum local = 2.84531e-05, global = -5.3511e-21, cumulative = 4.22272e-19
DICPCG:  Solving for p_rgh, Initial residual = 0.0109549, Final residual = 0.000536363, No Iterations 3
time step continuity errors : sum local = 4.49448e-06, global = 6.94837e-21, cumulative = 4.2922e-19
DICPCG:  Solving for p_rgh, Initial residual = 0.00132392, Final residual = 7.80535e-08, No Iterations 138
time step continuity errors : sum local = 6.53029e-10, global = 1.15022e-20, cumulative = 4.40722e-19
ExecutionTime = 0.58 s  ClockTime = 0 s

Courant Number mean: 0.00354742 max: 0.351121
Interface Courant Number mean: 0.000772699 max: 0.273621
deltaT = 0.000385559
Time = 0.00296179

PIMPLE: iteration 1
smoothSolver:  Solving for alpha.water, Initial residual = 0.00141677, Final residual = 7.34506e-09, No Iterations 2
Phase-1 volume fraction = 0.9684  Min(alpha.water) = 1.81201e-25  Max(alpha.water) = 1
solve the reinitialization equation

solve the reinitialization equation

MULES: Correcting alpha.water
solve the reinitialization equation

solve the reinitialization equation

MULES: Correcting alpha.water
solve the reinitialization equation

Phase-1 volume fraction = 0.9684  Min(alpha.water) = 1.81201e-25  Max(alpha.water) = 1
DICPCG:  Solving for p_rgh, Initial residual = 0.0829013, Final residual = 0.00262981, No Iterations 2
time step continuity errors : sum local = 2.9609e-05, global = -8.41933e-21, cumulative = 4.32303e-19
DICPCG:  Solving for p_rgh, Initial residual = 0.00950073, Final residual = 0.000415504, No Iterations 4
time step continuity errors : sum local = 4.81847e-06, global = -7.07046e-21, cumulative = 4.25233e-19
DICPCG:  Solving for p_rgh, Initial residual = 0.00135218, Final residual = 8.31601e-08, No Iterations 137
time step continuity errors : sum local = 9.62914e-10, global = 5.51411e-21, cumulative = 4.30747e-19
ExecutionTime = 0.63 s  ClockTime = 0 s

Courant Number mean: 0.00391711 max: 0.355409
Interface Courant Number mean: 0.000844447 max: 0.243112
deltaT = 0.000461159
Time = 0.00342295

PIMPLE: iteration 1
smoothSolver:  Solving for alpha.water, Initial residual = 0.00151638, Final residual = 8.73011e-09, No Iterations 2
Phase-1 volume fraction = 0.9684  Min(alpha.water) = 5.5267e-24  Max(alpha.water) = 1
solve the reinitialization equation

solve the reinitialization equation

MULES: Correcting alpha.water
solve the reinitialization equation

solve the reinitialization equation

MULES: Correcting alpha.water
solve the reinitialization equation

Phase-1 volume fraction = 0.9684  Min(alpha.water) = 5.5267e-24  Max(alpha.water) = 1
DICPCG:  Solving for p_rgh, Initial residual = 0.0806282, Final residual = 0.00223017, No Iterations 2
time step continuity errors : sum local = 3.49219e-05, global = -3.36012e-21, cumulative = 4.27387e-19
DICPCG:  Solving for p_rgh, Initial residual = 0.00924781, Final residual = 0.000441732, No Iterations 8
time step continuity errors : sum local = 6.9986e-06, global = 1.0848e-21, cumulative = 4.28471e-19
DICPCG:  Solving for p_rgh, Initial residual = 0.00169883, Final residual = 9.71726e-08, No Iterations 141
time step continuity errors : sum local = 1.53924e-09, global = 1.51928e-20, cumulative = 4.43664e-19
ExecutionTime = 0.68 s  ClockTime = 0 s

Courant Number mean: 0.00430318 max: 0.320466
Interface Courant Number mean: 0.000881176 max: 0.260575
deltaT = 0.000554489
Time = 0.00397743

PIMPLE: iteration 1
smoothSolver:  Solving for alpha.water, Initial residual = 0.00189619, Final residual = 3.67849e-12, No Iterations 3
Phase-1 volume fraction = 0.9684  Min(alpha.water) = 7.95605e-23  Max(alpha.water) = 1
solve the reinitialization equation

solve the reinitialization equation

MULES: Correcting alpha.water
solve the reinitialization equation

solve the reinitialization equation

MULES: Correcting alpha.water
solve the reinitialization equation

Phase-1 volume fraction = 0.9684  Min(alpha.water) = 7.95605e-23  Max(alpha.water) = 1
DICPCG:  Solving for p_rgh, Initial residual = 0.103826, Final residual = 0.00241336, No Iterations 2
time step continuity errors : sum local = 5.01057e-05, global = 2.882e-20, cumulative = 4.72484e-19
DICPCG:  Solving for p_rgh, Initial residual = 0.00642941, Final residual = 0.000301666, No Iterations 4
time step continuity errors : sum local = 6.3228e-06, global = 5.17819e-23, cumulative = 4.72536e-19
DICPCG:  Solving for p_rgh, Initial residual = 0.00177893, Final residual = 6.96134e-08, No Iterations 144
time step continuity errors : sum local = 1.45935e-09, global = 7.45143e-21, cumulative = 4.79987e-19
ExecutionTime = 0.74 s  ClockTime = 1 s

Courant Number mean: 0.00449983 max: 0.31732
Interface Courant Number mean: 0.000873801 max: 0.282497
deltaT = 0.000666994
Time = 0.00464443

PIMPLE: iteration 1
smoothSolver:  Solving for alpha.water, Initial residual = 0.00219004, Final residual = 7.32426e-09, No Iterations 2
Phase-1 volume fraction = 0.9684  Min(alpha.water) = 3.2603e-21  Max(alpha.water) = 1
solve the reinitialization equation

solve the reinitialization equation

MULES: Correcting alpha.water
solve the reinitialization equation

solve the reinitialization equation

MULES: Correcting alpha.water
solve the reinitialization equation

Phase-1 volume fraction = 0.9684  Min(alpha.water) = 3.2603e-21  Max(alpha.water) = 1
DICPCG:  Solving for p_rgh, Initial residual = 0.127541, Final residual = 0.00270557, No Iterations 2
time step continuity errors : sum local = 6.9746e-05, global = 7.32637e-22, cumulative = 4.8072e-19
DICPCG:  Solving for p_rgh, Initial residual = 0.00559886, Final residual = 0.000242442, No Iterations 13
time step continuity errors : sum local = 6.50965e-06, global = 1.55951e-20, cumulative = 4.96315e-19
DICPCG:  Solving for p_rgh, Initial residual = 0.00182113, Final residual = 6.95609e-08, No Iterations 136
time step continuity errors : sum local = 1.86784e-09, global = -1.36426e-21, cumulative = 4.94951e-19
ExecutionTime = 0.79 s  ClockTime = 1 s

Courant Number mean: 0.00506425 max: 0.320782
Interface Courant Number mean: 0.00111449 max: 0.265372
deltaT = 0.000795712
Time = 0.00544014

PIMPLE: iteration 1
smoothSolver:  Solving for alpha.water, Initial residual = 0.00208732, Final residual = 8.74222e-09, No Iterations 2
Phase-1 volume fraction = 0.9684  Min(alpha.water) = 6.86125e-20  Max(alpha.water) = 1
solve the reinitialization equation

solve the reinitialization equation

MULES: Correcting alpha.water
solve the reinitialization equation

solve the reinitialization equation

MULES: Correcting alpha.water
solve the reinitialization equation

Phase-1 volume fraction = 0.9684  Min(alpha.water) = 6.86125e-20  Max(alpha.water) = 1
DICPCG:  Solving for p_rgh, Initial residual = 0.0972824, Final residual = 0.00236786, No Iterations 2
time step continuity errors : sum local = 8.46448e-05, global = 3.17014e-20, cumulative = 5.26652e-19
DICPCG:  Solving for p_rgh, Initial residual = 0.00519611, Final residual = 0.000235196, No Iterations 31
time step continuity errors : sum local = 8.71737e-06, global = 2.45269e-20, cumulative = 5.51179e-19
DICPCG:  Solving for p_rgh, Initial residual = 0.00126512, Final residual = 9.0173e-08, No Iterations 139
time step continuity errors : sum local = 3.32444e-09, global = 1.36564e-20, cumulative = 5.64835e-19
ExecutionTime = 0.85 s  ClockTime = 1 s

Courant Number mean: 0.00649321 max: 0.444653
Interface Courant Number mean: 0.00139033 max: 0.429678
deltaT = 0.000948082
Time = 0.00638822

PIMPLE: iteration 1
smoothSolver:  Solving for alpha.water, Initial residual = 0.00231198, Final residual = 4.21977e-11, No Iterations 3
Phase-1 volume fraction = 0.9684  Min(alpha.water) = 4.71683e-19  Max(alpha.water) = 1
solve the reinitialization equation

solve the reinitialization equation

MULES: Correcting alpha.water
solve the reinitialization equation

solve the reinitialization equation

MULES: Correcting alpha.water
solve the reinitialization equation

Phase-1 volume fraction = 0.9684  Min(alpha.water) = 4.71683e-19  Max(alpha.water) = 1
DICPCG:  Solving for p_rgh, Initial residual = 0.0802844, Final residual = 0.0024159, No Iterations 2
time step continuity errors : sum local = 0.000121478, global = 1.55656e-20, cumulative = 5.80401e-19
DICPCG:  Solving for p_rgh, Initial residual = 0.00422535, Final residual = 0.00018482, No Iterations 35
time step continuity errors : sum local = 9.45515e-06, global = -1.16426e-20, cumulative = 5.68758e-19
DICPCG:  Solving for p_rgh, Initial residual = 0.00100285, Final residual = 7.78972e-08, No Iterations 147
time step continuity errors : sum local = 3.94416e-09, global = 7.48336e-21, cumulative = 5.76242e-19
ExecutionTime = 0.91 s  ClockTime = 1 s

Courant Number mean: 0.00805908 max: 0.615726
Interface Courant Number mean: 0.00148989 max: 0.276422
deltaT = 0.00109029
Time = 0.00747852

PIMPLE: iteration 1
smoothSolver:  Solving for alpha.water, Initial residual = 0.00302731, Final residual = 4.8749e-10, No Iterations 3
Phase-1 volume fraction = 0.9684  Min(alpha.water) = 9.91408e-19  Max(alpha.water) = 1
solve the reinitialization equation

solve the reinitialization equation

MULES: Correcting alpha.water
solve the reinitialization equation

solve the reinitialization equation

MULES: Correcting alpha.water
solve the reinitialization equation

Phase-1 volume fraction = 0.9684  Min(alpha.water) = 9.91408e-19  Max(alpha.water) = 1
DICPCG:  Solving for p_rgh, Initial residual = 0.11199, Final residual = 0.00326161, No Iterations 2
time step continuity errors : sum local = 0.000151719, global = -2.13302e-20, cumulative = 5.54912e-19
DICPCG:  Solving for p_rgh, Initial residual = 0.0127579, Final residual = 0.000489573, No Iterations 7
time step continuity errors : sum local = 2.25782e-05, global = 2.42321e-20, cumulative = 5.79144e-19
DICPCG:  Solving for p_rgh, Initial residual = 0.00233928, Final residual = 8.28346e-08, No Iterations 147
time step continuity errors : sum local = 3.82809e-09, global = -4.73859e-21, cumulative = 5.74405e-19
ExecutionTime = 0.97 s  ClockTime = 1 s

Courant Number mean: 0.00710872 max: 0.518877
Interface Courant Number mean: 0.00174494 max: 0.348695
deltaT = 0.00128853
Time = 0.00876705

PIMPLE: iteration 1
smoothSolver:  Solving for alpha.water, Initial residual = 0.0036918, Final residual = 5.27264e-11, No Iterations 3
Phase-1 volume fraction = 0.9684  Min(alpha.water) = 1.10348e-18  Max(alpha.water) = 1
solve the reinitialization equation

solve the reinitialization equation

MULES: Correcting alpha.water
solve the reinitialization equation

solve the reinitialization equation

MULES: Correcting alpha.water
solve the reinitialization equation

Phase-1 volume fraction = 0.9684  Min(alpha.water) = 1.10348e-18  Max(alpha.water) = 1
DICPCG:  Solving for p_rgh, Initial residual = 0.150465, Final residual = 0.00363173, No Iterations 2
time step continuity errors : sum local = 0.000214555, global = -2.65997e-20, cumulative = 5.47805e-19
DICPCG:  Solving for p_rgh, Initial residual = 0.00763022, Final residual = 0.000365588, No Iterations 6
time step continuity errors : sum local = 2.06655e-05, global = 1.91777e-21, cumulative = 5.49723e-19
DICPCG:  Solving for p_rgh, Initial residual = 0.00140951, Final residual = 9.73614e-08, No Iterations 126
time step continuity errors : sum local = 5.49503e-09, global = 3.19337e-20, cumulative = 5.81657e-19
ExecutionTime = 1.02 s  ClockTime = 1 s

Courant Number mean: 0.00760958 max: 0.628786
Interface Courant Number mean: 0.00158281 max: 0.256391
deltaT = 0.00147261
Time = 0.0102397

PIMPLE: iteration 1
smoothSolver:  Solving for alpha.water, Initial residual = 0.00362288, Final residual = 2.12143e-09, No Iterations 3
Phase-1 volume fraction = 0.9684  Min(alpha.water) = 1.2992e-18  Max(alpha.water) = 1
solve the reinitialization equation

solve the reinitialization equation

MULES: Correcting alpha.water
solve the reinitialization equation

solve the reinitialization equation

MULES: Correcting alpha.water
solve the reinitialization equation

Phase-1 volume fraction = 0.9684  Min(alpha.water) = 1.2992e-18  Max(alpha.water) = 1
DICPCG:  Solving for p_rgh, Initial residual = 0.194112, Final residual = 0.00799738, No Iterations 2
time step continuity errors : sum local = 0.000296571, global = 6.31016e-21, cumulative = 5.87967e-19
DICPCG:  Solving for p_rgh, Initial residual = 0.0305426, Final residual = 0.00131724, No Iterations 3
time step continuity errors : sum local = 4.84881e-05, global = -1.99155e-20, cumulative = 5.68052e-19
DICPCG:  Solving for p_rgh, Initial residual = 0.00872479, Final residual = 9.7623e-08, No Iterations 141
time step continuity errors : sum local = 3.54306e-09, global = 2.47022e-20, cumulative = 5.92754e-19
ExecutionTime = 1.08 s  ClockTime = 1 s

Courant Number mean: 0.00742932 max: 0.522229
Interface Courant Number mean: 0.0023446 max: 0.522229
deltaT = 0.00172871
Time = 0.0119684

PIMPLE: iteration 1
smoothSolver:  Solving for alpha.water, Initial residual = 0.00355288, Final residual = 6.91282e-10, No Iterations 3
Phase-1 volume fraction = 0.9684  Min(alpha.water) = 1.30078e-18  Max(alpha.water) = 1
solve the reinitialization equation

solve the reinitialization equation

MULES: Correcting alpha.water
solve the reinitialization equation

solve the reinitialization equation

MULES: Correcting alpha.water
solve the reinitialization equation

Phase-1 volume fraction = 0.9684  Min(alpha.water) = 1.30078e-18  Max(alpha.water) = 1
DICPCG:  Solving for p_rgh, Initial residual = 0.221589, Final residual = 0.00698028, No Iterations 2
time step continuity errors : sum local = 0.000372296, global = -2.06574e-20, cumulative = 5.72097e-19
DICPCG:  Solving for p_rgh, Initial residual = 0.0174432, Final residual = 0.000711808, No Iterations 7
time step continuity errors : sum local = 3.85495e-05, global = -1.07509e-20, cumulative = 5.61346e-19
DICPCG:  Solving for p_rgh, Initial residual = 0.00340888, Final residual = 7.68268e-08, No Iterations 148
time step continuity errors : sum local = 4.132e-09, global = 7.4669e-21, cumulative = 5.68813e-19
ExecutionTime = 1.13 s  ClockTime = 1 s

Courant Number mean: 0.0101624 max: 0.568517
Interface Courant Number mean: 0.00286821 max: 0.568517
deltaT = 0.00200167
Time = 0.01397

PIMPLE: iteration 1
smoothSolver:  Solving for alpha.water, Initial residual = 0.00412039, Final residual = 1.25744e-09, No Iterations 3
Phase-1 volume fraction = 0.9684  Min(alpha.water) = 8.85002e-18  Max(alpha.water) = 1
solve the reinitialization equation

solve the reinitialization equation

MULES: Correcting alpha.water
solve the reinitialization equation

solve the reinitialization equation

MULES: Correcting alpha.water
solve the reinitialization equation

Phase-1 volume fraction = 0.9684  Min(alpha.water) = 8.85002e-18  Max(alpha.water) = 1
DICPCG:  Solving for p_rgh, Initial residual = 0.256047, Final residual = 0.0104435, No Iterations 2
time step continuity errors : sum local = 0.000714482, global = -3.85292e-20, cumulative = 5.30283e-19
DICPCG:  Solving for p_rgh, Initial residual = 0.0168922, Final residual = 0.000833136, No Iterations 4
time step continuity errors : sum local = 6.17916e-05, global = 3.86793e-21, cumulative = 5.34151e-19
DICPCG:  Solving for p_rgh, Initial residual = 0.00416122, Final residual = 8.60884e-08, No Iterations 149
time step continuity errors : sum local = 6.37492e-09, global = -1.71856e-21, cumulative = 5.32433e-19
ExecutionTime = 1.19 s  ClockTime = 1 s

Courant Number mean: 0.0129869 max: 0.803469
Interface Courant Number mean: 0.00415294 max: 0.692452
deltaT = 0.00225187
Time = 0.0162219

PIMPLE: iteration 1
smoothSolver:  Solving for alpha.water, Initial residual = 0.00710259, Final residual = 5.59226e-09, No Iterations 3
Phase-1 volume fraction = 0.9684  Min(alpha.water) = 3.57707e-15  Max(alpha.water) = 1
solve the reinitialization equation

solve the reinitialization equation

MULES: Correcting alpha.water
solve the reinitialization equation

solve the reinitialization equation

MULES: Correcting alpha.water
solve the reinitialization equation

Phase-1 volume fraction = 0.9684  Min(alpha.water) = 3.57707e-15  Max(alpha.water) = 1
DICPCG:  Solving for p_rgh, Initial residual = 0.198423, Final residual = 0.00383605, No Iterations 3
time step continuity errors : sum local = 0.000301354, global = 6.55673e-20, cumulative = 5.98e-19
DICPCG:  Solving for p_rgh, Initial residual = 0.0150154, Final residual = 0.000602485, No Iterations 4
time step continuity errors : sum local = 4.67513e-05, global = -7.99217e-21, cumulative = 5.90008e-19
DICPCG:  Solving for p_rgh, Initial residual = 0.0054125, Final residual = 8.49299e-08, No Iterations 137
time step continuity errors : sum local = 6.58001e-09, global = 3.68332e-20, cumulative = 6.26841e-19
ExecutionTime = 1.25 s  ClockTime = 1 s

Courant Number mean: 0.012725 max: 0.855666
Interface Courant Number mean: 0.00337885 max: 0.603636
deltaT = 0.00259832
Time = 0.0188202

PIMPLE: iteration 1
smoothSolver:  Solving for alpha.water, Initial residual = 0.00384563, Final residual = 5.73332e-09, No Iterations 3
Phase-1 volume fraction = 0.9684  Min(alpha.water) = 3.62685e-15  Max(alpha.water) = 1
solve the reinitialization equation

solve the reinitialization equation

MULES: Correcting alpha.water
solve the reinitialization equation

solve the reinitialization equation

MULES: Correcting alpha.water
solve the reinitialization equation

Phase-1 volume fraction = 0.9684  Min(alpha.water) = 3.80775e-15  Max(alpha.water) = 1
DICPCG:  Solving for p_rgh, Initial residual = 0.145685, Final residual = 0.00405522, No Iterations 2
time step continuity errors : sum local = 0.000440962, global = -2.70341e-20, cumulative = 5.99807e-19
DICPCG:  Solving for p_rgh, Initial residual = 0.00848482, Final residual = 0.000380108, No Iterations 7
time step continuity errors : sum local = 4.04672e-05, global = -1.51454e-20, cumulative = 5.84662e-19
DICPCG:  Solving for p_rgh, Initial residual = 0.00183143, Final residual = 9.26149e-08, No Iterations 129
time step continuity errors : sum local = 9.86058e-09, global = -1.74774e-20, cumulative = 5.67184e-19
ExecutionTime = 1.3 s  ClockTime = 1 s

Courant Number mean: 0.0165629 max: 1.47393
Interface Courant Number mean: 0.00369712 max: 0.896661
deltaT = 0.00173221
Time = 0.0205524

PIMPLE: iteration 1
smoothSolver:  Solving for alpha.water, Initial residual = 0.00499427, Final residual = 1.99205e-09, No Iterations 3
Phase-1 volume fraction = 0.9684  Min(alpha.water) = 3.96996e-15  Max(alpha.water) = 1
solve the reinitialization equation

solve the reinitialization equation

MULES: Correcting alpha.water
solve the reinitialization equation

solve the reinitialization equation

MULES: Correcting alpha.water
solve the reinitialization equation

Phase-1 volume fraction = 0.9684  Min(alpha.water) = 3.96996e-15  Max(alpha.water) = 1
DICPCG:  Solving for p_rgh, Initial residual = 0.231436, Final residual = 0.00855394, No Iterations 2
time step continuity errors : sum local = 0.000347018, global = -9.10484e-21, cumulative = 5.58079e-19
DICPCG:  Solving for p_rgh, Initial residual = 0.0303029, Final residual = 0.00151394, No Iterations 3
time step continuity errors : sum local = 6.66182e-05, global = 8.96865e-21, cumulative = 5.67048e-19
DICPCG:  Solving for p_rgh, Initial residual = 0.00817664, Final residual = 6.75825e-08, No Iterations 152
time step continuity errors : sum local = 2.94601e-09, global = 1.43045e-20, cumulative = 5.81352e-19
ExecutionTime = 1.36 s  ClockTime = 1 s

Courant Number mean: 0.00858588 max: 0.474597
Interface Courant Number mean: 0.00246849 max: 0.437226
deltaT = 0.0021034
Time = 0.0226558

PIMPLE: iteration 1
smoothSolver:  Solving for alpha.water, Initial residual = 0.00619572, Final residual = 1.0229e-09, No Iterations 3
Phase-1 volume fraction = 0.9684  Min(alpha.water) = 4.81678e-15  Max(alpha.water) = 1
solve the reinitialization equation

solve the reinitialization equation

MULES: Correcting alpha.water
solve the reinitialization equation

solve the reinitialization equation

MULES: Correcting alpha.water
solve the reinitialization equation

Phase-1 volume fraction = 0.9684  Min(alpha.water) = 4.81678e-15  Max(alpha.water) = 1
DICPCG:  Solving for p_rgh, Initial residual = 0.345544, Final residual = 0.00906648, No Iterations 2
time step continuity errors : sum local = 0.000471472, global = 7.23482e-21, cumulative = 5.88587e-19
DICPCG:  Solving for p_rgh, Initial residual = 0.0160667, Final residual = 0.00052887, No Iterations 4
time step continuity errors : sum local = 2.81125e-05, global = 1.14088e-20, cumulative = 5.99996e-19
DICPCG:  Solving for p_rgh, Initial residual = 0.00270774, Final residual = 9.81662e-08, No Iterations 147
time step continuity errors : sum local = 5.18771e-09, global = 5.14138e-20, cumulative = 6.5141e-19
ExecutionTime = 1.41 s  ClockTime = 1 s

Courant Number mean: 0.0113792 max: 0.786556
Interface Courant Number mean: 0.00356955 max: 0.612401
deltaT = 0.00227868
Time = 0.0249345

PIMPLE: iteration 1
smoothSolver:  Solving for alpha.water, Initial residual = 0.00616429, Final residual = 5.09936e-09, No Iterations 3
Phase-1 volume fraction = 0.9684  Min(alpha.water) = 6.92586e-15  Max(alpha.water) = 1
solve the reinitialization equation

solve the reinitialization equation

MULES: Correcting alpha.water
solve the reinitialization equation

solve the reinitialization equation

MULES: Correcting alpha.water
solve the reinitialization equation

Phase-1 volume fraction = 0.9684  Min(alpha.water) = 6.92586e-15  Max(alpha.water) = 1
DICPCG:  Solving for p_rgh, Initial residual = 0.463689, Final residual = 0.0105611, No Iterations 2
time step continuity errors : sum local = 0.000525254, global = -2.67171e-20, cumulative = 6.24693e-19
DICPCG:  Solving for p_rgh, Initial residual = 0.0240997, Final residual = 0.00104779, No Iterations 10
time step continuity errors : sum local = 5.47797e-05, global = 1.90269e-20, cumulative = 6.4372e-19
DICPCG:  Solving for p_rgh, Initial residual = 0.00515179, Final residual = 8.46724e-08, No Iterations 128
time step continuity errors : sum local = 4.39865e-09, global = 1.71827e-21, cumulative = 6.45438e-19
ExecutionTime = 1.46 s  ClockTime = 1 s

Courant Number mean: 0.0135515 max: 0.855207
Interface Courant Number mean: 0.00439542 max: 0.731533
deltaT = 0.00250655
Time = 0.0274411

PIMPLE: iteration 1
smoothSolver:  Solving for alpha.water, Initial residual = 0.0100336, Final residual = 8.86492e-11, No Iterations 4
Phase-1 volume fraction = 0.9684  Min(alpha.water) = 1.43207e-14  Max(alpha.water) = 1
solve the reinitialization equation

solve the reinitialization equation

MULES: Correcting alpha.water
solve the reinitialization equation

solve the reinitialization equation

MULES: Correcting alpha.water
solve the reinitialization equation

Phase-1 volume fraction = 0.9684  Min(alpha.water) = 1.43207e-14  Max(alpha.water) = 1
DICPCG:  Solving for p_rgh, Initial residual = 0.513908, Final residual = 0.0214222, No Iterations 2
time step continuity errors : sum local = 0.00114848, global = 2.66538e-20, cumulative = 6.72092e-19
DICPCG:  Solving for p_rgh, Initial residual = 0.0458029, Final residual = 0.00184639, No Iterations 6
time step continuity errors : sum local = 9.02077e-05, global = -3.73163e-20, cumulative = 6.34775e-19
DICPCG:  Solving for p_rgh, Initial residual = 0.0134741, Final residual = 9.45153e-08, No Iterations 139
time step continuity errors : sum local = 4.59472e-09, global = -4.5939e-20, cumulative = 5.88836e-19
ExecutionTime = 1.52 s  ClockTime = 1 s

Courant Number mean: 0.0146984 max: 1.04748
Interface Courant Number mean: 0.00625625 max: 1.04748
deltaT = 0.00250655
Time = 0.0299476

PIMPLE: iteration 1
smoothSolver:  Solving for alpha.water, Initial residual = 0.00846186, Final residual = 5.98228e-09, No Iterations 3
Phase-1 volume fraction = 0.9684  Min(alpha.water) = 2.50762e-14  Max(alpha.water) = 1
solve the reinitialization equation

solve the reinitialization equation

MULES: Correcting alpha.water
solve the reinitialization equation

solve the reinitialization equation

MULES: Correcting alpha.water
solve the reinitialization equation

Phase-1 volume fraction = 0.9684  Min(alpha.water) = 3.19226e-14  Max(alpha.water) = 1
DICPCG:  Solving for p_rgh, Initial residual = 0.596905, Final residual = 0.0171003, No Iterations 2
time step continuity errors : sum local = 0.000921007, global = 5.37624e-20, cumulative = 6.42599e-19
DICPCG:  Solving for p_rgh, Initial residual = 0.0375846, Final residual = 0.00152338, No Iterations 6
time step continuity errors : sum local = 9.74154e-05, global = -2.51335e-20, cumulative = 6.17465e-19
DICPCG:  Solving for p_rgh, Initial residual = 0.0158483, Final residual = 9.15714e-08, No Iterations 140
time step continuity errors : sum local = 5.8127e-09, global = -3.28448e-20, cumulative = 5.84621e-19
ExecutionTime = 1.58 s  ClockTime = 1 s

Courant Number mean: 0.0117132 max: 0.61853
Interface Courant Number mean: 0.00471062 max: 0.61853
deltaT = 0.00286463
Time = 0.0328122

PIMPLE: iteration 1
smoothSolver:  Solving for alpha.water, Initial residual = 0.0126108, Final residual = 6.75486e-09, No Iterations 3
Phase-1 volume fraction = 0.9684  Min(alpha.water) = 1.4469e-13  Max(alpha.water) = 1
solve the reinitialization equation

solve the reinitialization equation

MULES: Correcting alpha.water
solve the reinitialization equation

solve the reinitialization equation

MULES: Correcting alpha.water
solve the reinitialization equation

Phase-1 volume fraction = 0.9684  Min(alpha.water) = 1.4469e-13  Max(alpha.water) = 1
DICPCG:  Solving for p_rgh, Initial residual = 0.725049, Final residual = 0.0270347, No Iterations 2
time step continuity errors : sum local = 0.00145462, global = -2.69078e-19, cumulative = 3.15543e-19
DICPCG:  Solving for p_rgh, Initial residual = 0.0600439, Final residual = 0.00286519, No Iterations 5
time step continuity errors : sum local = 0.000175667, global = 5.38334e-20, cumulative = 3.69376e-19
DICPCG:  Solving for p_rgh, Initial residual = 0.0130918, Final residual = 8.04831e-08, No Iterations 153
time step continuity errors : sum local = 4.91219e-09, global = -3.97548e-20, cumulative = 3.29621e-19
ExecutionTime = 1.63 s  ClockTime = 1 s

Courant Number mean: 0.0204936 max: 1.31984
Interface Courant Number mean: 0.00961096 max: 1.13365
deltaT = 0.00214847
Time = 0.0349607

PIMPLE: iteration 1
smoothSolver:  Solving for alpha.water, Initial residual = 0.0157366, Final residual = 2.59482e-10, No Iterations 4
Phase-1 volume fraction = 0.9684  Min(alpha.water) = 1.29041e-11  Max(alpha.water) = 1
solve the reinitialization equation

solve the reinitialization equation

MULES: Correcting alpha.water
solve the reinitialization equation

solve the reinitialization equation

MULES: Correcting alpha.water
solve the reinitialization equation

Phase-1 volume fraction = 0.9684  Min(alpha.water) = 1.29041e-11  Max(alpha.water) = 1
DICPCG:  Solving for p_rgh, Initial residual = 0.79336, Final residual = 0.0293955, No Iterations 3
time step continuity errors : sum local = 0.000617691, global = -5.80594e-20, cumulative = 2.71562e-19
DICPCG:  Solving for p_rgh, Initial residual = 0.176021, Final residual = 0.00859131, No Iterations 9
time step continuity errors : sum local = 0.000210414, global = -3.42388e-21, cumulative = 2.68138e-19
DICPCG:  Solving for p_rgh, Initial residual = 0.061102, Final residual = 8.93985e-08, No Iterations 154
time step continuity errors : sum local = 2.08796e-09, global = 1.25541e-20, cumulative = 2.80692e-19
ExecutionTime = 1.69 s  ClockTime = 1 s

Courant Number mean: 0.0101552 max: 0.65633
Interface Courant Number mean: 0.00396828 max: 0.65633
deltaT = 0.00250655
Time = 0.0374673

PIMPLE: iteration 1
smoothSolver:  Solving for alpha.water, Initial residual = 0.00916403, Final residual = 1.51161e-11, No Iterations 4
Phase-1 volume fraction = 0.9684  Min(alpha.water) = 3.68551e-11  Max(alpha.water) = 1
solve the reinitialization equation

solve the reinitialization equation

MULES: Correcting alpha.water
solve the reinitialization equation

solve the reinitialization equation

MULES: Correcting alpha.water
solve the reinitialization equation

Phase-1 volume fraction = 0.9684  Min(alpha.water) = 3.68551e-11  Max(alpha.water) = 1
DICPCG:  Solving for p_rgh, Initial residual = 0.493389, Final residual = 0.0238692, No Iterations 2
time step continuity errors : sum local = 0.00117115, global = -8.05026e-20, cumulative = 2.00189e-19
DICPCG:  Solving for p_rgh, Initial residual = 0.0467092, Final residual = 0.00221849, No Iterations 12
time step continuity errors : sum local = 8.44435e-05, global = -1.8391e-20, cumulative = 1.81798e-19
DICPCG:  Solving for p_rgh, Initial residual = 0.0109014, Final residual = 8.07233e-08, No Iterations 132
time step continuity errors : sum local = 3.03273e-09, global = -3.16604e-20, cumulative = 1.50138e-19
ExecutionTime = 1.75 s  ClockTime = 2 s

Courant Number mean: 0.0128517 max: 0.82188
Interface Courant Number mean: 0.00612051 max: 0.82188
deltaT = 0.00313319
Time = 0.0406004

PIMPLE: iteration 1
smoothSolver:  Solving for alpha.water, Initial residual = 0.0118935, Final residual = 3.24714e-10, No Iterations 4
Phase-1 volume fraction = 0.9684  Min(alpha.water) = 1.25448e-10  Max(alpha.water) = 1
solve the reinitialization equation

solve the reinitialization equation

MULES: Correcting alpha.water
solve the reinitialization equation

solve the reinitialization equation

MULES: Correcting alpha.water
solve the reinitialization equation

Phase-1 volume fraction = 0.9684  Min(alpha.water) = 1.25448e-10  Max(alpha.water) = 1
DICPCG:  Solving for p_rgh, Initial residual = 0.652118, Final residual = 0.0312537, No Iterations 2
time step continuity errors : sum local = 0.00145145, global = 1.97744e-20, cumulative = 1.69912e-19
DICPCG:  Solving for p_rgh, Initial residual = 0.0605161, Final residual = 0.00281821, No Iterations 11
time step continuity errors : sum local = 0.000134284, global = -1.48567e-19, cumulative = 2.13452e-20
DICPCG:  Solving for p_rgh, Initial residual = 0.0164371, Final residual = 6.41456e-08, No Iterations 141
time step continuity errors : sum local = 3.0511e-09, global = -1.26384e-19, cumulative = -1.05038e-19
ExecutionTime = 1.81 s  ClockTime = 2 s

Courant Number mean: 0.022034 max: 1.54904
Interface Courant Number mean: 0.011113 max: 1.54904
deltaT = 0.00187991
Time = 0.0424804

PIMPLE: iteration 1
smoothSolver:  Solving for alpha.water, Initial residual = 0.0124698, Final residual = 8.64139e-11, No Iterations 4
Phase-1 volume fraction = 0.9684  Min(alpha.water) = 1.25763e-10  Max(alpha.water) = 1
solve the reinitialization equation

solve the reinitialization equation

MULES: Correcting alpha.water
solve the reinitialization equation

solve the reinitialization equation

MULES: Correcting alpha.water
solve the reinitialization equation

Phase-1 volume fraction = 0.9684  Min(alpha.water) = 1.26101e-10  Max(alpha.water) = 1
DICPCG:  Solving for p_rgh, Initial residual = 0.807766, Final residual = 0.0283269, No Iterations 2
time step continuity errors : sum local = 0.000572563, global = 4.99169e-20, cumulative = -5.51214e-20
DICPCG:  Solving for p_rgh, Initial residual = 0.0708163, Final residual = 0.00344469, No Iterations 9
time step continuity errors : sum local = 8.56062e-05, global = -2.54907e-20, cumulative = -8.06121e-20
DICPCG:  Solving for p_rgh, Initial residual = 0.030051, Final residual = 9.28145e-08, No Iterations 140
time step continuity errors : sum local = 2.24694e-09, global = 2.4629e-20, cumulative = -5.59831e-20
ExecutionTime = 1.86 s  ClockTime = 2 s

Courant Number mean: 0.00766729 max: 0.439237
Interface Courant Number mean: 0.00265768 max: 0.431965
deltaT = 0.00250655
Time = 0.0449869

PIMPLE: iteration 1
smoothSolver:  Solving for alpha.water, Initial residual = 0.00527653, Final residual = 5.79745e-10, No Iterations 3
Phase-1 volume fraction = 0.9684  Min(alpha.water) = 1.28753e-10  Max(alpha.water) = 1
solve the reinitialization equation

solve the reinitialization equation

MULES: Correcting alpha.water
solve the reinitialization equation

solve the reinitialization equation

MULES: Correcting alpha.water
solve the reinitialization equation

Phase-1 volume fraction = 0.9684  Min(alpha.water) = 1.31284e-10  Max(alpha.water) = 1
DICPCG:  Solving for p_rgh, Initial residual = 0.344215, Final residual = 0.0121268, No Iterations 3
time step continuity errors : sum local = 0.000672732, global = -1.39229e-19, cumulative = -1.95212e-19
DICPCG:  Solving for p_rgh, Initial residual = 0.02413, Final residual = 0.000913751, No Iterations 36
time step continuity errors : sum local = 4.7129e-05, global = 2.19545e-21, cumulative = -1.93017e-19
DICPCG:  Solving for p_rgh, Initial residual = 0.00363458, Final residual = 6.06315e-08, No Iterations 141
time step continuity errors : sum local = 3.03354e-09, global = 1.55625e-20, cumulative = -1.77454e-19
ExecutionTime = 1.93 s  ClockTime = 2 s

Courant Number mean: 0.0149316 max: 1.16216
Interface Courant Number mean: 0.00736911 max: 1.16216
deltaT = 0.00250655
Time = 0.0474935

PIMPLE: iteration 1
smoothSolver:  Solving for alpha.water, Initial residual = 0.0134758, Final residual = 4.54742e-10, No Iterations 4
Phase-1 volume fraction = 0.9684  Min(alpha.water) = 1.62452e-10  Max(alpha.water) = 1
solve the reinitialization equation

solve the reinitialization equation

MULES: Correcting alpha.water
solve the reinitialization equation

solve the reinitialization equation

MULES: Correcting alpha.water
solve the reinitialization equation

Phase-1 volume fraction = 0.9684  Min(alpha.water) = 1.64263e-10  Max(alpha.water) = 1
DICPCG:  Solving for p_rgh, Initial residual = 0.656464, Final residual = 0.0194545, No Iterations 3
time step continuity errors : sum local = 0.000720675, global = 8.84839e-21, cumulative = -1.68606e-19
DICPCG:  Solving for p_rgh, Initial residual = 0.0841815, Final residual = 0.00407514, No Iterations 4
time step continuity errors : sum local = 0.000181731, global = -5.90033e-20, cumulative = -2.27609e-19
DICPCG:  Solving for p_rgh, Initial residual = 0.0343019, Final residual = 8.0409e-08, No Iterations 153
time step continuity errors : sum local = 3.54676e-09, global = 5.09773e-20, cumulative = -1.76632e-19
ExecutionTime = 1.98 s  ClockTime = 2 s

Courant Number mean: 0.0139812 max: 0.945918
Interface Courant Number mean: 0.00671682 max: 0.931499
deltaT = 0.00250655
Time = 0.05

PIMPLE: iteration 1
smoothSolver:  Solving for alpha.water, Initial residual = 0.0129702, Final residual = 4.64357e-11, No Iterations 4
Phase-1 volume fraction = 0.9684  Min(alpha.water) = 1.64737e-10  Max(alpha.water) = 1
solve the reinitialization equation

solve the reinitialization equation

MULES: Correcting alpha.water
solve the reinitialization equation

solve the reinitialization equation

MULES: Correcting alpha.water
solve the reinitialization equation

Phase-1 volume fraction = 0.9684  Min(alpha.water) = 1.66053e-10  Max(alpha.water) = 1
DICPCG:  Solving for p_rgh, Initial residual = 0.616403, Final residual = 0.0145692, No Iterations 3
time step continuity errors : sum local = 0.000512103, global = 2.5775e-20, cumulative = -1.50857e-19
DICPCG:  Solving for p_rgh, Initial residual = 0.0952355, Final residual = 0.00460936, No Iterations 9
time step continuity errors : sum local = 0.000164753, global = 3.79389e-20, cumulative = -1.12918e-19
DICPCG:  Solving for p_rgh, Initial residual = 0.0337483, Final residual = 8.89317e-08, No Iterations 138
time step continuity errors : sum local = 3.20422e-09, global = 5.98555e-21, cumulative = -1.06932e-19
ExecutionTime = 2.06 s  ClockTime = 2 s

Courant Number mean: 0.0140937 max: 1.17759
Interface Courant Number mean: 0.00632244 max: 1.17759
deltaT = 0.00217391
Time = 0.0521739

PIMPLE: iteration 1
smoothSolver:  Solving for alpha.water, Initial residual = 0.0100505, Final residual = 7.24318e-11, No Iterations 4
Phase-1 volume fraction = 0.9684  Min(alpha.water) = 1.67307e-10  Max(alpha.water) = 1
solve the reinitialization equation

solve the reinitialization equation

MULES: Correcting alpha.water
solve the reinitialization equation

solve the reinitialization equation

MULES: Correcting alpha.water
solve the reinitialization equation

Phase-1 volume fraction = 0.9684  Min(alpha.water) = 1.68831e-10  Max(alpha.water) = 1
DICPCG:  Solving for p_rgh, Initial residual = 0.596653, Final residual = 0.0248322, No Iterations 2
time step continuity errors : sum local = 0.000984868, global = -5.7428e-20, cumulative = -1.6436e-19
DICPCG:  Solving for p_rgh, Initial residual = 0.0536056, Final residual = 0.00194805, No Iterations 6
time step continuity errors : sum local = 7.36468e-05, global = 2.24055e-20, cumulative = -1.41955e-19
DICPCG:  Solving for p_rgh, Initial residual = 0.0138853, Final residual = 8.61413e-08, No Iterations 152
time step continuity errors : sum local = 3.23518e-09, global = -3.87985e-21, cumulative = -1.45835e-19
ExecutionTime = 2.12 s  ClockTime = 2 s

Courant Number mean: 0.0110348 max: 1.37095
Interface Courant Number mean: 0.00523324 max: 1.37095
deltaT = 0.0015942
Time = 0.0537681

PIMPLE: iteration 1
smoothSolver:  Solving for alpha.water, Initial residual = 0.00624644, Final residual = 1.16818e-09, No Iterations 3
Phase-1 volume fraction = 0.9684  Min(alpha.water) = 1.71791e-10  Max(alpha.water) = 1
solve the reinitialization equation

solve the reinitialization equation

MULES: Correcting alpha.water
solve the reinitialization equation

solve the reinitialization equation

MULES: Correcting alpha.water
solve the reinitialization equation

Phase-1 volume fraction = 0.9684  Min(alpha.water) = 1.71791e-10  Max(alpha.water) = 1
DICPCG:  Solving for p_rgh, Initial residual = 0.469864, Final residual = 0.0234446, No Iterations 2
time step continuity errors : sum local = 0.000430174, global = -5.53729e-20, cumulative = -2.01208e-19
DICPCG:  Solving for p_rgh, Initial residual = 0.0448264, Final residual = 0.0021381, No Iterations 27
time step continuity errors : sum local = 3.35901e-05, global = -7.9579e-21, cumulative = -2.09166e-19
DICPCG:  Solving for p_rgh, Initial residual = 0.00818502, Final residual = 8.29588e-08, No Iterations 138
time step continuity errors : sum local = 1.27176e-09, global = -7.41219e-22, cumulative = -2.09907e-19
ExecutionTime = 2.18 s  ClockTime = 2 s

Courant Number mean: 0.00691742 max: 0.841021
Interface Courant Number mean: 0.00292678 max: 0.841021
deltaT = 0.00177815
Time = 0.0555463

PIMPLE: iteration 1
smoothSolver:  Solving for alpha.water, Initial residual = 0.00419075, Final residual = 4.15277e-10, No Iterations 3
Phase-1 volume fraction = 0.9684  Min(alpha.water) = 1.75996e-10  Max(alpha.water) = 1
solve the reinitialization equation

solve the reinitialization equation

MULES: Correcting alpha.water
solve the reinitialization equation

solve the reinitialization equation

MULES: Correcting alpha.water
solve the reinitialization equation

Phase-1 volume fraction = 0.9684  Min(alpha.water) = 1.75996e-10  Max(alpha.water) = 1
DICPCG:  Solving for p_rgh, Initial residual = 0.272841, Final residual = 0.012923, No Iterations 2
time step continuity errors : sum local = 0.00030244, global = 2.46361e-20, cumulative = -1.85271e-19
DICPCG:  Solving for p_rgh, Initial residual = 0.0274188, Final residual = 0.00120886, No Iterations 37
time step continuity errors : sum local = 2.93151e-05, global = 2.18183e-20, cumulative = -1.63452e-19
DICPCG:  Solving for p_rgh, Initial residual = 0.0063073, Final residual = 9.039e-08, No Iterations 141
time step continuity errors : sum local = 2.12511e-09, global = -1.87121e-20, cumulative = -1.82164e-19
ExecutionTime = 2.24 s  ClockTime = 2 s

Courant Number mean: 0.00729476 max: 0.533719
Interface Courant Number mean: 0.00306712 max: 0.441604
deltaT = 0.00211684
Time = 0.0576631

PIMPLE: iteration 1
smoothSolver:  Solving for alpha.water, Initial residual = 0.00544657, Final residual = 4.34728e-10, No Iterations 3
Phase-1 volume fraction = 0.9684  Min(alpha.water) = 1.81242e-10  Max(alpha.water) = 1
solve the reinitialization equation

solve the reinitialization equation

MULES: Correcting alpha.water
solve the reinitialization equation

solve the reinitialization equation

MULES: Correcting alpha.water
solve the reinitialization equation

Phase-1 volume fraction = 0.9684  Min(alpha.water) = 1.81921e-10  Max(alpha.water) = 1
DICPCG:  Solving for p_rgh, Initial residual = 0.344148, Final residual = 0.0107896, No Iterations 2
time step continuity errors : sum local = 0.000396008, global = 4.72418e-20, cumulative = -1.34923e-19
DICPCG:  Solving for p_rgh, Initial residual = 0.0195795, Final residual = 0.000939646, No Iterations 6
time step continuity errors : sum local = 3.62449e-05, global = -2.5074e-21, cumulative = -1.3743e-19
DICPCG:  Solving for p_rgh, Initial residual = 0.00297603, Final residual = 7.89451e-08, No Iterations 142
time step continuity errors : sum local = 3.02809e-09, global = -5.54689e-20, cumulative = -1.92899e-19
ExecutionTime = 2.32 s  ClockTime = 2 s

Courant Number mean: 0.00907513 max: 1.02794
Interface Courant Number mean: 0.00397843 max: 1.02794
deltaT = 0.00201604
Time = 0.0596792

PIMPLE: iteration 1
smoothSolver:  Solving for alpha.water, Initial residual = 0.0064062, Final residual = 2.6475e-09, No Iterations 3
Phase-1 volume fraction = 0.9684  Min(alpha.water) = 1.82354e-10  Max(alpha.water) = 1
solve the reinitialization equation

solve the reinitialization equation

MULES: Correcting alpha.water
solve the reinitialization equation

solve the reinitialization equation

MULES: Correcting alpha.water
solve the reinitialization equation

Phase-1 volume fraction = 0.9684  Min(alpha.water) = 1.82696e-10  Max(alpha.water) = 1
DICPCG:  Solving for p_rgh, Initial residual = 0.388704, Final residual = 0.0131517, No Iterations 2
time step continuity errors : sum local = 0.000478993, global = 2.88131e-20, cumulative = -1.64086e-19
DICPCG:  Solving for p_rgh, Initial residual = 0.0371309, Final residual = 0.00152052, No Iterations 6
time step continuity errors : sum local = 6.008e-05, global = -3.02361e-20, cumulative = -1.94322e-19
DICPCG:  Solving for p_rgh, Initial residual = 0.0103957, Final residual = 7.90727e-08, No Iterations 152
time step continuity errors : sum local = 3.10652e-09, global = -1.77762e-20, cumulative = -2.12098e-19
ExecutionTime = 2.38 s  ClockTime = 2 s

Courant Number mean: 0.00816185 max: 0.757203
Interface Courant Number mean: 0.0033333 max: 0.576232
deltaT = 0.00224005
Time = 0.0619192

PIMPLE: iteration 1
smoothSolver:  Solving for alpha.water, Initial residual = 0.00616392, Final residual = 3.65536e-10, No Iterations 3
Phase-1 volume fraction = 0.9684  Min(alpha.water) = 1.98103e-10  Max(alpha.water) = 1
solve the reinitialization equation

solve the reinitialization equation

MULES: Correcting alpha.water
solve the reinitialization equation

solve the reinitialization equation

MULES: Correcting alpha.water
solve the reinitialization equation

Phase-1 volume fraction = 0.9684  Min(alpha.water) = 1.98103e-10  Max(alpha.water) = 1
DICPCG:  Solving for p_rgh, Initial residual = 0.367692, Final residual = 0.0169371, No Iterations 2
time step continuity errors : sum local = 0.000598923, global = -2.2789e-20, cumulative = -2.34887e-19
DICPCG:  Solving for p_rgh, Initial residual = 0.0361524, Final residual = 0.00158098, No Iterations 32
time step continuity errors : sum local = 5.37698e-05, global = -7.12969e-21, cumulative = -2.42017e-19
DICPCG:  Solving for p_rgh, Initial residual = 0.00695016, Final residual = 9.65392e-08, No Iterations 150
time step continuity errors : sum local = 3.2317e-09, global = 4.14791e-20, cumulative = -2.00538e-19
ExecutionTime = 2.44 s  ClockTime = 2 s

Courant Number mean: 0.00813874 max: 0.637378
Interface Courant Number mean: 0.0032769 max: 0.637378
deltaT = 0.00253872
Time = 0.0644579

PIMPLE: iteration 1
smoothSolver:  Solving for alpha.water, Initial residual = 0.00499214, Final residual = 4.25698e-11, No Iterations 4
Phase-1 volume fraction = 0.9684  Min(alpha.water) = 2.49825e-10  Max(alpha.water) = 1
solve the reinitialization equation

solve the reinitialization equation

MULES: Correcting alpha.water
solve the reinitialization equation

solve the reinitialization equation

MULES: Correcting alpha.water
solve the reinitialization equation

Phase-1 volume fraction = 0.9684  Min(alpha.water) = 2.49825e-10  Max(alpha.water) = 1
DICPCG:  Solving for p_rgh, Initial residual = 0.358196, Final residual = 0.0123119, No Iterations 2
time step continuity errors : sum local = 0.000566407, global = -4.74491e-20, cumulative = -2.47987e-19
DICPCG:  Solving for p_rgh, Initial residual = 0.0241609, Final residual = 0.00116569, No Iterations 31
time step continuity errors : sum local = 5.45553e-05, global = -5.4076e-20, cumulative = -3.02063e-19
DICPCG:  Solving for p_rgh, Initial residual = 0.00489948, Final residual = 9.09472e-08, No Iterations 139
time step continuity errors : sum local = 4.20715e-09, global = -1.96954e-20, cumulative = -3.21758e-19
ExecutionTime = 2.5 s  ClockTime = 2 s

Courant Number mean: 0.0136257 max: 1.16584
Interface Courant Number mean: 0.0062867 max: 1.16584
deltaT = 0.00222138
Time = 0.0666793

PIMPLE: iteration 1
smoothSolver:  Solving for alpha.water, Initial residual = 0.00874564, Final residual = 7.69188e-09, No Iterations 3
Phase-1 volume fraction = 0.9684  Min(alpha.water) = 2.78325e-10  Max(alpha.water) = 1
solve the reinitialization equation

solve the reinitialization equation

MULES: Correcting alpha.water
solve the reinitialization equation

solve the reinitialization equation

MULES: Correcting alpha.water
solve the reinitialization equation

Phase-1 volume fraction = 0.9684  Min(alpha.water) = 2.78325e-10  Max(alpha.water) = 1
DICPCG:  Solving for p_rgh, Initial residual = 0.580049, Final residual = 0.0217578, No Iterations 2
time step continuity errors : sum local = 0.000789909, global = 7.96688e-20, cumulative = -2.42089e-19
DICPCG:  Solving for p_rgh, Initial residual = 0.0558555, Final residual = 0.0027235, No Iterations 4
time step continuity errors : sum local = 0.000119239, global = -1.98196e-20, cumulative = -2.61909e-19
DICPCG:  Solving for p_rgh, Initial residual = 0.0189396, Final residual = 9.00239e-08, No Iterations 151
time step continuity errors : sum local = 3.89473e-09, global = 5.23557e-21, cumulative = -2.56673e-19
ExecutionTime = 2.55 s  ClockTime = 2 s

Courant Number mean: 0.0104005 max: 1.05517
Interface Courant Number mean: 0.00482994 max: 1.05517
deltaT = 0.00208254
Time = 0.0687618

PIMPLE: iteration 1
smoothSolver:  Solving for alpha.water, Initial residual = 0.0087292, Final residual = 5.35764e-09, No Iterations 3
Phase-1 volume fraction = 0.9684  Min(alpha.water) = 2.79296e-10  Max(alpha.water) = 1
solve the reinitialization equation

solve the reinitialization equation

MULES: Correcting alpha.water
solve the reinitialization equation

solve the reinitialization equation

MULES: Correcting alpha.water
solve the reinitialization equation

Phase-1 volume fraction = 0.9684  Min(alpha.water) = 2.79296e-10  Max(alpha.water) = 1
DICPCG:  Solving for p_rgh, Initial residual = 0.51809, Final residual = 0.014378, No Iterations 3
time step continuity errors : sum local = 0.000493172, global = -6.16108e-20, cumulative = -3.18284e-19
DICPCG:  Solving for p_rgh, Initial residual = 0.0364338, Final residual = 0.00167151, No Iterations 32
time step continuity errors : sum local = 5.50122e-05, global = 3.28565e-21, cumulative = -3.14999e-19
DICPCG:  Solving for p_rgh, Initial residual = 0.00644654, Final residual = 7.35566e-08, No Iterations 152
time step continuity errors : sum local = 2.38046e-09, global = 2.7304e-20, cumulative = -2.87695e-19
ExecutionTime = 2.61 s  ClockTime = 2 s

Courant Number mean: 0.0084481 max: 0.894466
Interface Courant Number mean: 0.00365554 max: 0.739497
deltaT = 0.00240294
Time = 0.0711648

PIMPLE: iteration 1
smoothSolver:  Solving for alpha.water, Initial residual = 0.00664145, Final residual = 3.68306e-09, No Iterations 3
Phase-1 volume fraction = 0.9684  Min(alpha.water) = 2.79557e-10  Max(alpha.water) = 1
solve the reinitialization equation

solve the reinitialization equation

MULES: Correcting alpha.water
solve the reinitialization equation

solve the reinitialization equation

MULES: Correcting alpha.water
solve the reinitialization equation

Phase-1 volume fraction = 0.9684  Min(alpha.water) = 2.81639e-10  Max(alpha.water) = 1
DICPCG:  Solving for p_rgh, Initial residual = 0.270261, Final residual = 0.0109139, No Iterations 2
time step continuity errors : sum local = 0.000450516, global = -1.80087e-20, cumulative = -3.05703e-19
DICPCG:  Solving for p_rgh, Initial residual = 0.0264174, Final residual = 0.0011354, No Iterations 31
time step continuity errors : sum local = 4.67542e-05, global = 7.60461e-21, cumulative = -2.98099e-19
DICPCG:  Solving for p_rgh, Initial residual = 0.00677824, Final residual = 8.90715e-08, No Iterations 140
time step continuity errors : sum local = 3.63432e-09, global = -3.90716e-20, cumulative = -3.3717e-19
ExecutionTime = 2.67 s  ClockTime = 2 s

Courant Number mean: 0.0125824 max: 0.984286
Interface Courant Number mean: 0.00569253 max: 0.984286
deltaT = 0.00240294
Time = 0.0735677

PIMPLE: iteration 1
smoothSolver:  Solving for alpha.water, Initial residual = 0.0100375, Final residual = 1.24271e-09, No Iterations 3
Phase-1 volume fraction = 0.9684  Min(alpha.water) = 3.39225e-10  Max(alpha.water) = 1
solve the reinitialization equation

solve the reinitialization equation

MULES: Correcting alpha.water
solve the reinitialization equation

solve the reinitialization equation

MULES: Correcting alpha.water
solve the reinitialization equation

Phase-1 volume fraction = 0.9684  Min(alpha.water) = 3.4146e-10  Max(alpha.water) = 1
DICPCG:  Solving for p_rgh, Initial residual = 0.555084, Final residual = 0.024675, No Iterations 2
time step continuity errors : sum local = 0.000936915, global = -8.15813e-22, cumulative = -3.37986e-19
DICPCG:  Solving for p_rgh, Initial residual = 0.086079, Final residual = 0.00377408, No Iterations 5
time step continuity errors : sum local = 0.000174146, global = 3.07389e-20, cumulative = -3.07247e-19
DICPCG:  Solving for p_rgh, Initial residual = 0.0321914, Final residual = 9.62971e-08, No Iterations 142
time step continuity errors : sum local = 4.39839e-09, global = 8.62874e-21, cumulative = -2.98618e-19
ExecutionTime = 2.73 s  ClockTime = 3 s

Courant Number mean: 0.0117294 max: 0.951816
Interface Courant Number mean: 0.00539065 max: 0.951816
deltaT = 0.00264323
Time = 0.0762109

PIMPLE: iteration 1
smoothSolver:  Solving for alpha.water, Initial residual = 0.0113681, Final residual = 5.66128e-10, No Iterations 4
Phase-1 volume fraction = 0.9684  Min(alpha.water) = 6.96258e-10  Max(alpha.water) = 1
solve the reinitialization equation

solve the reinitialization equation

MULES: Correcting alpha.water
solve the reinitialization equation

solve the reinitialization equation

MULES: Correcting alpha.water
solve the reinitialization equation

Phase-1 volume fraction = 0.9684  Min(alpha.water) = 6.96258e-10  Max(alpha.water) = 1
DICPCG:  Solving for p_rgh, Initial residual = 0.650461, Final residual = 0.0296202, No Iterations 2
time step continuity errors : sum local = 0.00128278, global = 7.98157e-20, cumulative = -2.18803e-19
DICPCG:  Solving for p_rgh, Initial residual = 0.0753216, Final residual = 0.00320255, No Iterations 9
time step continuity errors : sum local = 0.000128336, global = 5.73266e-20, cumulative = -1.61476e-19
DICPCG:  Solving for p_rgh, Initial residual = 0.0175355, Final residual = 7.7583e-08, No Iterations 155
time step continuity errors : sum local = 3.02733e-09, global = 4.06895e-20, cumulative = -1.20787e-19
ExecutionTime = 2.79 s  ClockTime = 3 s

Courant Number mean: 0.0144043 max: 1.8156
Interface Courant Number mean: 0.00692276 max: 1.8156
deltaT = 0.00148682
Time = 0.0776978

PIMPLE: iteration 1
smoothSolver:  Solving for alpha.water, Initial residual = 0.00693113, Final residual = 4.21301e-09, No Iterations 3
Phase-1 volume fraction = 0.9684  Min(alpha.water) = 7.40237e-10  Max(alpha.water) = 1
solve the reinitialization equation

solve the reinitialization equation

MULES: Correcting alpha.water
solve the reinitialization equation

solve the reinitialization equation

MULES: Correcting alpha.water
solve the reinitialization equation

Phase-1 volume fraction = 0.9684  Min(alpha.water) = 7.40237e-10  Max(alpha.water) = 1
DICPCG:  Solving for p_rgh, Initial residual = 0.433622, Final residual = 0.0181662, No Iterations 2
time step continuity errors : sum local = 0.000268319, global = -1.65297e-21, cumulative = -1.2244e-19
DICPCG:  Solving for p_rgh, Initial residual = 0.0417574, Final residual = 0.00184063, No Iterations 34
time step continuity errors : sum local = 2.5938e-05, global = 1.07571e-20, cumulative = -1.11683e-19
DICPCG:  Solving for p_rgh, Initial residual = 0.00998039, Final residual = 9.48688e-08, No Iterations 152
time step continuity errors : sum local = 1.29854e-09, global = 9.11377e-22, cumulative = -1.10771e-19
ExecutionTime = 2.86 s  ClockTime = 3 s

Courant Number mean: 0.00726483 max: 0.571465
Interface Courant Number mean: 0.00324914 max: 0.571465
deltaT = 0.00171556
Time = 0.0794133

PIMPLE: iteration 1
smoothSolver:  Solving for alpha.water, Initial residual = 0.00496032, Final residual = 1.82495e-09, No Iterations 3
Phase-1 volume fraction = 0.9684  Min(alpha.water) = 8.03605e-10  Max(alpha.water) = 1
solve the reinitialization equation

solve the reinitialization equation

MULES: Correcting alpha.water
solve the reinitialization equation

solve the reinitialization equation

MULES: Correcting alpha.water
solve the reinitialization equation

Phase-1 volume fraction = 0.9684  Min(alpha.water) = 8.03605e-10  Max(alpha.water) = 1
DICPCG:  Solving for p_rgh, Initial residual = 0.338891, Final residual = 0.0154982, No Iterations 2
time step continuity errors : sum local = 0.000359681, global = -3.49237e-20, cumulative = -1.45695e-19
DICPCG:  Solving for p_rgh, Initial residual = 0.0325364, Final residual = 0.00150072, No Iterations 36
time step continuity errors : sum local = 3.68578e-05, global = -1.9737e-20, cumulative = -1.65432e-19
DICPCG:  Solving for p_rgh, Initial residual = 0.00664393, Final residual = 8.14081e-08, No Iterations 151
time step continuity errors : sum local = 1.94858e-09, global = -1.50545e-20, cumulative = -1.80486e-19
ExecutionTime = 2.93 s  ClockTime = 3 s

Courant Number mean: 0.00900545 max: 0.877208
Interface Courant Number mean: 0.00400895 max: 0.877208
deltaT = 0.00187152
Time = 0.0812848

PIMPLE: iteration 1
smoothSolver:  Solving for alpha.water, Initial residual = 0.00761205, Final residual = 4.84147e-09, No Iterations 3
Phase-1 volume fraction = 0.9684  Min(alpha.water) = 9.0498e-10  Max(alpha.water) = 1
solve the reinitialization equation

solve the reinitialization equation

MULES: Correcting alpha.water
solve the reinitialization equation

solve the reinitialization equation

MULES: Correcting alpha.water
solve the reinitialization equation

Phase-1 volume fraction = 0.9684  Min(alpha.water) = 9.0498e-10  Max(alpha.water) = 1
DICPCG:  Solving for p_rgh, Initial residual = 0.390137, Final residual = 0.0176432, No Iterations 2
time step continuity errors : sum local = 0.000477525, global = 6.10068e-20, cumulative = -1.1948e-19
DICPCG:  Solving for p_rgh, Initial residual = 0.0491603, Final residual = 0.00244323, No Iterations 23
time step continuity errors : sum local = 7.03075e-05, global = -2.04373e-20, cumulative = -1.39917e-19
DICPCG:  Solving for p_rgh, Initial residual = 0.0124659, Final residual = 9.49402e-08, No Iterations 151
time step continuity errors : sum local = 2.70031e-09, global = -7.95267e-21, cumulative = -1.4787e-19
ExecutionTime = 2.99 s  ClockTime = 3 s

Courant Number mean: 0.00759396 max: 0.514437
Interface Courant Number mean: 0.00298417 max: 0.473197
deltaT = 0.0023394
Time = 0.0836242

PIMPLE: iteration 1
smoothSolver:  Solving for alpha.water, Initial residual = 0.00643078, Final residual = 4.03596e-09, No Iterations 3
Phase-1 volume fraction = 0.9684  Min(alpha.water) = 1.07497e-09  Max(alpha.water) = 1
solve the reinitialization equation

solve the reinitialization equation

MULES: Correcting alpha.water
solve the reinitialization equation

solve the reinitialization equation

MULES: Correcting alpha.water
solve the reinitialization equation

Phase-1 volume fraction = 0.9684  Min(alpha.water) = 1.07497e-09  Max(alpha.water) = 1
DICPCG:  Solving for p_rgh, Initial residual = 0.362597, Final residual = 0.0174729, No Iterations 2
time step continuity errors : sum local = 0.000765311, global = -1.7737e-19, cumulative = -3.25239e-19
DICPCG:  Solving for p_rgh, Initial residual = 0.0283454, Final residual = 0.00138641, No Iterations 30
time step continuity errors : sum local = 6.34152e-05, global = 2.37011e-20, cumulative = -3.01538e-19
DICPCG:  Solving for p_rgh, Initial residual = 0.00643401, Final residual = 8.91572e-08, No Iterations 152
time step continuity errors : sum local = 4.01486e-09, global = 5.16766e-22, cumulative = -3.01021e-19
ExecutionTime = 3.05 s  ClockTime = 3 s

Courant Number mean: 0.0118235 max: 1.00578
Interface Courant Number mean: 0.00533543 max: 1.00578
deltaT = 0.0023394
Time = 0.0859636

PIMPLE: iteration 1
smoothSolver:  Solving for alpha.water, Initial residual = 0.00938226, Final residual = 6.89319e-09, No Iterations 3
Phase-1 volume fraction = 0.9684  Min(alpha.water) = 1.07765e-09  Max(alpha.water) = 1
solve the reinitialization equation

solve the reinitialization equation

MULES: Correcting alpha.water
solve the reinitialization equation

solve the reinitialization equation

MULES: Correcting alpha.water
solve the reinitialization equation

Phase-1 volume fraction = 0.9684  Min(alpha.water) = 1.07765e-09  Max(alpha.water) = 1
DICPCG:  Solving for p_rgh, Initial residual = 0.580509, Final residual = 0.0257328, No Iterations 2
time step continuity errors : sum local = 0.000846486, global = 8.05359e-21, cumulative = -2.92968e-19
DICPCG:  Solving for p_rgh, Initial residual = 0.0596166, Final residual = 0.00294845, No Iterations 13
time step continuity errors : sum local = 0.000103335, global = -9.27626e-21, cumulative = -3.02244e-19
DICPCG:  Solving for p_rgh, Initial residual = 0.0151689, Final residual = 7.00134e-08, No Iterations 154
time step continuity errors : sum local = 2.42263e-09, global = 1.5129e-20, cumulative = -2.87115e-19
ExecutionTime = 3.11 s  ClockTime = 3 s

Courant Number mean: 0.0117335 max: 1.01988
Interface Courant Number mean: 0.00518631 max: 1.01988
deltaT = 0.0023394
Time = 0.088303

PIMPLE: iteration 1
smoothSolver:  Solving for alpha.water, Initial residual = 0.00953851, Final residual = 8.72293e-09, No Iterations 3
Phase-1 volume fraction = 0.9684  Min(alpha.water) = 1.07768e-09  Max(alpha.water) = 1
solve the reinitialization equation

solve the reinitialization equation

MULES: Correcting alpha.water
solve the reinitialization equation

solve the reinitialization equation

MULES: Correcting alpha.water
solve the reinitialization equation

Phase-1 volume fraction = 0.9684  Min(alpha.water) = 1.07768e-09  Max(alpha.water) = 1
DICPCG:  Solving for p_rgh, Initial residual = 0.520172, Final residual = 0.0215874, No Iterations 2
time step continuity errors : sum local = 0.000772996, global = 6.77145e-21, cumulative = -2.80343e-19
DICPCG:  Solving for p_rgh, Initial residual = 0.0625601, Final residual = 0.00281216, No Iterations 5
time step continuity errors : sum local = 0.00010619, global = -2.81149e-21, cumulative = -2.83155e-19
DICPCG:  Solving for p_rgh, Initial residual = 0.0226499, Final residual = 9.20955e-08, No Iterations 161
time step continuity errors : sum local = 3.41793e-09, global = -6.93226e-20, cumulative = -3.52478e-19
ExecutionTime = 3.17 s  ClockTime = 3 s

Courant Number mean: 0.0122976 max: 1.07198
Interface Courant Number mean: 0.00551356 max: 0.990846
deltaT = 0.0023394
Time = 0.0906424

PIMPLE: iteration 1
smoothSolver:  Solving for alpha.water, Initial residual = 0.00921135, Final residual = 3.19512e-11, No Iterations 4
Phase-1 volume fraction = 0.9684  Min(alpha.water) = 1.17288e-09  Max(alpha.water) = 1
solve the reinitialization equation

solve the reinitialization equation

MULES: Correcting alpha.water
solve the reinitialization equation

solve the reinitialization equation

MULES: Correcting alpha.water
solve the reinitialization equation

Phase-1 volume fraction = 0.9684  Min(alpha.water) = 1.17288e-09  Max(alpha.water) = 1
DICPCG:  Solving for p_rgh, Initial residual = 0.509551, Final residual = 0.021844, No Iterations 2
time step continuity errors : sum local = 0.000786603, global = 6.65032e-20, cumulative = -2.85974e-19
DICPCG:  Solving for p_rgh, Initial residual = 0.0572156, Final residual = 0.00246053, No Iterations 31
time step continuity errors : sum local = 8.32092e-05, global = 1.76241e-20, cumulative = -2.6835e-19
DICPCG:  Solving for p_rgh, Initial residual = 0.0213592, Final residual = 9.83966e-08, No Iterations 160
time step continuity errors : sum local = 3.2134e-09, global = 1.61869e-20, cumulative = -2.52163e-19
ExecutionTime = 3.23 s  ClockTime = 3 s

Courant Number mean: 0.011364 max: 0.747432
Interface Courant Number mean: 0.00458497 max: 0.715847
deltaT = 0.0023394
Time = 0.0929818

PIMPLE: iteration 1
smoothSolver:  Solving for alpha.water, Initial residual = 0.00669022, Final residual = 5.06405e-09, No Iterations 3
Phase-1 volume fraction = 0.9684  Min(alpha.water) = 1.1754e-09  Max(alpha.water) = 1
solve the reinitialization equation

solve the reinitialization equation

MULES: Correcting alpha.water
solve the reinitialization equation

solve the reinitialization equation

MULES: Correcting alpha.water
solve the reinitialization equation

Phase-1 volume fraction = 0.9684  Min(alpha.water) = 1.179e-09  Max(alpha.water) = 1
DICPCG:  Solving for p_rgh, Initial residual = 0.350356, Final residual = 0.0170837, No Iterations 2
time step continuity errors : sum local = 0.00070759, global = -7.55088e-20, cumulative = -3.27672e-19
DICPCG:  Solving for p_rgh, Initial residual = 0.028548, Final residual = 0.00134392, No Iterations 36
time step continuity errors : sum local = 5.91146e-05, global = 3.98323e-20, cumulative = -2.8784e-19
DICPCG:  Solving for p_rgh, Initial residual = 0.00560648, Final residual = 6.4748e-08, No Iterations 141
time step continuity errors : sum local = 2.77984e-09, global = -1.66119e-20, cumulative = -3.04452e-19
ExecutionTime = 3.3 s  ClockTime = 3 s

Courant Number mean: 0.0121669 max: 1.17231
Interface Courant Number mean: 0.00489796 max: 1.17231
deltaT = 0.00175455
Time = 0.0947364

PIMPLE: iteration 1
smoothSolver:  Solving for alpha.water, Initial residual = 0.00618529, Final residual = 7.92212e-10, No Iterations 3
Phase-1 volume fraction = 0.9684  Min(alpha.water) = 1.18455e-09  Max(alpha.water) = 1
solve the reinitialization equation

solve the reinitialization equation

MULES: Correcting alpha.water
solve the reinitialization equation

solve the reinitialization equation

MULES: Correcting alpha.water
solve the reinitialization equation

Phase-1 volume fraction = 0.9684  Min(alpha.water) = 1.18455e-09  Max(alpha.water) = 1
DICPCG:  Solving for p_rgh, Initial residual = 0.440765, Final residual = 0.0152955, No Iterations 2
time step continuity errors : sum local = 0.000400553, global = 2.07462e-20, cumulative = -2.83706e-19
DICPCG:  Solving for p_rgh, Initial residual = 0.0387212, Final residual = 0.00167868, No Iterations 7
time step continuity errors : sum local = 4.81983e-05, global = -2.01286e-21, cumulative = -2.85718e-19
DICPCG:  Solving for p_rgh, Initial residual = 0.0115584, Final residual = 9.87799e-08, No Iterations 153
time step continuity errors : sum local = 2.79018e-09, global = 2.9733e-20, cumulative = -2.55985e-19
ExecutionTime = 3.36 s  ClockTime = 3 s

Courant Number mean: 0.00779683 max: 0.5657
Interface Courant Number mean: 0.00298848 max: 0.544053
deltaT = 0.00175455
Time = 0.0964909

PIMPLE: iteration 1
smoothSolver:  Solving for alpha.water, Initial residual = 0.00499798, Final residual = 2.20038e-10, No Iterations 3
Phase-1 volume fraction = 0.9684  Min(alpha.water) = 1.18751e-09  Max(alpha.water) = 1
solve the reinitialization equation

solve the reinitialization equation

MULES: Correcting alpha.water
solve the reinitialization equation

solve the reinitialization equation

MULES: Correcting alpha.water
solve the reinitialization equation

Phase-1 volume fraction = 0.9684  Min(alpha.water) = 1.18751e-09  Max(alpha.water) = 1
DICPCG:  Solving for p_rgh, Initial residual = 0.348179, Final residual = 0.0170407, No Iterations 2
time step continuity errors : sum local = 0.000444875, global = 2.57937e-20, cumulative = -2.30192e-19
DICPCG:  Solving for p_rgh, Initial residual = 0.0246632, Final residual = 0.00118646, No Iterations 35
time step continuity errors : sum local = 2.95838e-05, global = 5.11157e-21, cumulative = -2.2508e-19
DICPCG:  Solving for p_rgh, Initial residual = 0.00356235, Final residual = 8.271e-08, No Iterations 151
time step continuity errors : sum local = 2.02777e-09, global = -3.90324e-21, cumulative = -2.28983e-19
ExecutionTime = 3.42 s  ClockTime = 3 s

Courant Number mean: 0.00743796 max: 0.448698
Interface Courant Number mean: 0.00269212 max: 0.353895
deltaT = 0.00175455
Time = 0.0982455

PIMPLE: iteration 1
smoothSolver:  Solving for alpha.water, Initial residual = 0.00365264, Final residual = 2.01473e-10, No Iterations 3
Phase-1 volume fraction = 0.9684  Min(alpha.water) = 1.19453e-09  Max(alpha.water) = 1
solve the reinitialization equation

solve the reinitialization equation

MULES: Correcting alpha.water
solve the reinitialization equation

solve the reinitialization equation

MULES: Correcting alpha.water
solve the reinitialization equation

Phase-1 volume fraction = 0.9684  Min(alpha.water) = 1.19453e-09  Max(alpha.water) = 1
DICPCG:  Solving for p_rgh, Initial residual = 0.238109, Final residual = 0.00892089, No Iterations 2
time step continuity errors : sum local = 0.000242692, global = -1.14814e-20, cumulative = -2.40465e-19
DICPCG:  Solving for p_rgh, Initial residual = 0.0192042, Final residual = 0.000874873, No Iterations 14
time step continuity errors : sum local = 2.32885e-05, global = -2.54161e-21, cumulative = -2.43006e-19
DICPCG:  Solving for p_rgh, Initial residual = 0.0027139, Final residual = 9.24106e-08, No Iterations 147
time step continuity errors : sum local = 2.44567e-09, global = 4.44625e-22, cumulative = -2.42562e-19
ExecutionTime = 3.48 s  ClockTime = 3 s

Courant Number mean: 0.00835769 max: 0.75567
Interface Courant Number mean: 0.00327577 max: 0.643425
deltaT = 0.00175455
Time = 0.1

PIMPLE: iteration 1
smoothSolver:  Solving for alpha.water, Initial residual = 0.00482311, Final residual = 1.32084e-09, No Iterations 3
Phase-1 volume fraction = 0.9684  Min(alpha.water) = 1.2149e-09  Max(alpha.water) = 1
solve the reinitialization equation

solve the reinitialization equation

MULES: Correcting alpha.water
solve the reinitialization equation

solve the reinitialization equation

MULES: Correcting alpha.water
solve the reinitialization equation

Phase-1 volume fraction = 0.9684  Min(alpha.water) = 1.2149e-09  Max(alpha.water) = 1
DICPCG:  Solving for p_rgh, Initial residual = 0.414702, Final residual = 0.0121795, No Iterations 2
time step continuity errors : sum local = 0.000339742, global = -1.36806e-20, cumulative = -2.56242e-19
[...]
ExecutionTime = 17.02 s  ClockTime = 17 s

fieldMinMax minMax write:
    min/max(mag(U)) = 0 0.215682

Courant Number mean: 0.0169651 max: 0.878469
Interface Courant Number mean: 0.00229135 max: 0.476748
deltaT = 0.00177961
Time = 0.478645

PIMPLE: iteration 1
smoothSolver:  Solving for alpha.water, Initial residual = 0.00283497, Final residual = 2.63056e-09, No Iterations 3
Phase-1 volume fraction = 0.9684  Min(alpha.water) = 1.5843e-05  Max(alpha.water) = 1
solve the reinitialization equation

solve the reinitialization equation

MULES: Correcting alpha.water
solve the reinitialization equation

solve the reinitialization equation

MULES: Correcting alpha.water
solve the reinitialization equation

Phase-1 volume fraction = 0.9684  Min(alpha.water) = 1.45698e-05  Max(alpha.water) = 1
DICPCG:  Solving for p_rgh, Initial residual = 0.0847743, Final residual = 0.00286448, No Iterations 2
time step continuity errors : sum local = 0.000207134, global = -2.24103e-20, cumulative = -2.94299e-19
DICPCG:  Solving for p_rgh, Initial residual = 0.00562885, Final residual = 0.000249882, No Iterations 6
time step continuity errors : sum local = 1.79573e-05, global = 3.12532e-21, cumulative = -2.91174e-19
DICPCG:  Solving for p_rgh, Initial residual = 0.00110766, Final residual = 8.85156e-08, No Iterations 161
time step continuity errors : sum local = 6.35535e-09, global = 9.97418e-21, cumulative = -2.812e-19
ExecutionTime = 17.08 s  ClockTime = 17 s

fieldMinMax minMax write:
    min/max(mag(U)) = 0 0.239692

Courant Number mean: 0.0195563 max: 1.11441
Interface Courant Number mean: 0.00255477 max: 0.56204
deltaT = 0.00164272
Time = 0.480287

PIMPLE: iteration 1
smoothSolver:  Solving for alpha.water, Initial residual = 0.00282881, Final residual = 1.46328e-09, No Iterations 3
Phase-1 volume fraction = 0.9684  Min(alpha.water) = 1.53549e-05  Max(alpha.water) = 1
solve the reinitialization equation

solve the reinitialization equation

MULES: Correcting alpha.water
solve the reinitialization equation

solve the reinitialization equation

MULES: Correcting alpha.water
solve the reinitialization equation

Phase-1 volume fraction = 0.9684  Min(alpha.water) = 1.10706e-05  Max(alpha.water) = 1
DICPCG:  Solving for p_rgh, Initial residual = 0.0824136, Final residual = 0.00303641, No Iterations 2
time step continuity errors : sum local = 0.000197476, global = 1.87727e-20, cumulative = -2.62427e-19
DICPCG:  Solving for p_rgh, Initial residual = 0.00506883, Final residual = 0.000219192, No Iterations 7
time step continuity errors : sum local = 1.43385e-05, global = -2.07352e-20, cumulative = -2.83162e-19
DICPCG:  Solving for p_rgh, Initial residual = 0.000913795, Final residual = 7.85173e-08, No Iterations 163
time step continuity errors : sum local = 5.13097e-09, global = -5.48238e-20, cumulative = -3.37986e-19
ExecutionTime = 17.14 s  ClockTime = 17 s

fieldMinMax minMax write:
    min/max(mag(U)) = 0 0.231889

Courant Number mean: 0.0181399 max: 0.986973
Interface Courant Number mean: 0.00241255 max: 0.511018
deltaT = 0.00164272
Time = 0.48193

PIMPLE: iteration 1
smoothSolver:  Solving for alpha.water, Initial residual = 0.00256855, Final residual = 1.61938e-09, No Iterations 3
Phase-1 volume fraction = 0.9684  Min(alpha.water) = 1.50405e-05  Max(alpha.water) = 1
solve the reinitialization equation

solve the reinitialization equation

MULES: Correcting alpha.water
solve the reinitialization equation

solve the reinitialization equation

MULES: Correcting alpha.water
solve the reinitialization equation

Phase-1 volume fraction = 0.9684  Min(alpha.water) = 1.38724e-05  Max(alpha.water) = 1
DICPCG:  Solving for p_rgh, Initial residual = 0.0684735, Final residual = 0.00212154, No Iterations 2
time step continuity errors : sum local = 0.00013628, global = -3.06639e-20, cumulative = -3.6865e-19
DICPCG:  Solving for p_rgh, Initial residual = 0.00450472, Final residual = 0.000223663, No Iterations 7
time step continuity errors : sum local = 1.44065e-05, global = -2.79807e-20, cumulative = -3.96631e-19
DICPCG:  Solving for p_rgh, Initial residual = 0.00090505, Final residual = 8.57013e-08, No Iterations 162
time step continuity errors : sum local = 5.51832e-09, global = 1.11932e-20, cumulative = -3.85437e-19
ExecutionTime = 17.2 s  ClockTime = 17 s

fieldMinMax minMax write:
    min/max(mag(U)) = 0 0.214606

Courant Number mean: 0.0180637 max: 0.918149
Interface Courant Number mean: 0.00239178 max: 0.507585
deltaT = 0.00180699
Time = 0.483737

PIMPLE: iteration 1
smoothSolver:  Solving for alpha.water, Initial residual = 0.00286217, Final residual = 2.56806e-09, No Iterations 3
Phase-1 volume fraction = 0.9684  Min(alpha.water) = 1.48601e-05  Max(alpha.water) = 1
solve the reinitialization equation

solve the reinitialization equation

MULES: Correcting alpha.water
solve the reinitialization equation

solve the reinitialization equation

MULES: Correcting alpha.water
solve the reinitialization equation

Phase-1 volume fraction = 0.9684  Min(alpha.water) = 1.3752e-05  Max(alpha.water) = 1
DICPCG:  Solving for p_rgh, Initial residual = 0.0852169, Final residual = 0.00231801, No Iterations 2
time step continuity errors : sum local = 0.000171556, global = -6.11044e-20, cumulative = -4.46542e-19
DICPCG:  Solving for p_rgh, Initial residual = 0.00490796, Final residual = 0.000214549, No Iterations 7
time step continuity errors : sum local = 1.58749e-05, global = 1.86871e-20, cumulative = -4.27855e-19
DICPCG:  Solving for p_rgh, Initial residual = 0.00109515, Final residual = 9.68273e-08, No Iterations 157
time step continuity errors : sum local = 7.15926e-09, global = 3.36583e-20, cumulative = -3.94197e-19
ExecutionTime = 17.26 s  ClockTime = 17 s

fieldMinMax minMax write:
    min/max(mag(U)) = 0 0.23847

Courant Number mean: 0.0200338 max: 1.10451
Interface Courant Number mean: 0.00264056 max: 0.549559
deltaT = 0.00162629
Time = 0.485363

PIMPLE: iteration 1
smoothSolver:  Solving for alpha.water, Initial residual = 0.00271737, Final residual = 1.56125e-09, No Iterations 3
Phase-1 volume fraction = 0.9684  Min(alpha.water) = 1.453e-05  Max(alpha.water) = 1
solve the reinitialization equation

solve the reinitialization equation

MULES: Correcting alpha.water
solve the reinitialization equation

solve the reinitialization equation

MULES: Correcting alpha.water
solve the reinitialization equation

Phase-1 volume fraction = 0.9684  Min(alpha.water) = 1.37783e-05  Max(alpha.water) = 1
DICPCG:  Solving for p_rgh, Initial residual = 0.103339, Final residual = 0.00250856, No Iterations 2
time step continuity errors : sum local = 0.00015509, global = -1.56292e-21, cumulative = -3.95759e-19
DICPCG:  Solving for p_rgh, Initial residual = 0.0056182, Final residual = 0.000276066, No Iterations 6
time step continuity errors : sum local = 1.71287e-05, global = 2.93089e-20, cumulative = -3.66451e-19
DICPCG:  Solving for p_rgh, Initial residual = 0.00122218, Final residual = 9.60613e-08, No Iterations 161
time step continuity errors : sum local = 5.9581e-09, global = 5.79229e-21, cumulative = -3.60658e-19
ExecutionTime = 17.32 s  ClockTime = 17 s

fieldMinMax minMax write:
    min/max(mag(U)) = 0 0.227349

Courant Number mean: 0.0179523 max: 0.951974
Interface Courant Number mean: 0.00246808 max: 0.553986
deltaT = 0.00162629
Time = 0.48699

PIMPLE: iteration 1
smoothSolver:  Solving for alpha.water, Initial residual = 0.00283267, Final residual = 1.66337e-09, No Iterations 3
Phase-1 volume fraction = 0.9684  Min(alpha.water) = 1.43425e-05  Max(alpha.water) = 1
solve the reinitialization equation

solve the reinitialization equation

MULES: Correcting alpha.water
solve the reinitialization equation

solve the reinitialization equation

MULES: Correcting alpha.water
solve the reinitialization equation

Phase-1 volume fraction = 0.9684  Min(alpha.water) = 1.3269e-05  Max(alpha.water) = 1
DICPCG:  Solving for p_rgh, Initial residual = 0.10993, Final residual = 0.00297905, No Iterations 2
time step continuity errors : sum local = 0.000189568, global = -2.78352e-20, cumulative = -3.88493e-19
DICPCG:  Solving for p_rgh, Initial residual = 0.00630545, Final residual = 0.000219628, No Iterations 7
time step continuity errors : sum local = 1.38961e-05, global = -2.25538e-20, cumulative = -4.11047e-19
DICPCG:  Solving for p_rgh, Initial residual = 0.00127099, Final residual = 9.55037e-08, No Iterations 113
time step continuity errors : sum local = 7.01561e-09, global = 3.78429e-20, cumulative = -3.73204e-19
ExecutionTime = 17.37 s  ClockTime = 17 s

fieldMinMax minMax write:
    min/max(mag(U)) = 0 0.248255

Courant Number mean: 0.0179339 max: 1.01414
Interface Courant Number mean: 0.00235628 max: 0.50869
deltaT = 0.00162629
Time = 0.488616

PIMPLE: iteration 1
smoothSolver:  Solving for alpha.water, Initial residual = 0.00272054, Final residual = 1.73293e-09, No Iterations 3
Phase-1 volume fraction = 0.9684  Min(alpha.water) = 1.40404e-05  Max(alpha.water) = 1
solve the reinitialization equation

solve the reinitialization equation

MULES: Correcting alpha.water
solve the reinitialization equation

solve the reinitialization equation

MULES: Correcting alpha.water
solve the reinitialization equation

Phase-1 volume fraction = 0.9684  Min(alpha.water) = 1.32765e-05  Max(alpha.water) = 1
DICPCG:  Solving for p_rgh, Initial residual = 0.0921764, Final residual = 0.00273154, No Iterations 2
time step continuity errors : sum local = 0.000175079, global = -1.08822e-21, cumulative = -3.74293e-19
DICPCG:  Solving for p_rgh, Initial residual = 0.00475765, Final residual = 0.00023644, No Iterations 6
time step continuity errors : sum local = 1.52619e-05, global = 2.72862e-20, cumulative = -3.47006e-19
DICPCG:  Solving for p_rgh, Initial residual = 0.000980296, Final residual = 9.28928e-08, No Iterations 160
time step continuity errors : sum local = 5.98824e-09, global = -1.3242e-20, cumulative = -3.60248e-19
ExecutionTime = 17.43 s  ClockTime = 17 s

fieldMinMax minMax write:
    min/max(mag(U)) = 0 0.202907

Courant Number mean: 0.0179988 max: 0.874432
Interface Courant Number mean: 0.00233868 max: 0.49446
deltaT = 0.00189734
Time = 0.490513

PIMPLE: iteration 1
smoothSolver:  Solving for alpha.water, Initial residual = 0.00293072, Final residual = 4.08679e-09, No Iterations 3
Phase-1 volume fraction = 0.9684  Min(alpha.water) = 1.40189e-05  Max(alpha.water) = 1
solve the reinitialization equation

solve the reinitialization equation

MULES: Correcting alpha.water
solve the reinitialization equation

solve the reinitialization equation

MULES: Correcting alpha.water
solve the reinitialization equation

Phase-1 volume fraction = 0.9684  Min(alpha.water) = 1.29176e-05  Max(alpha.water) = 1
DICPCG:  Solving for p_rgh, Initial residual = 0.0688406, Final residual = 0.0023977, No Iterations 2
time step continuity errors : sum local = 0.000188322, global = -3.66267e-20, cumulative = -3.96875e-19
DICPCG:  Solving for p_rgh, Initial residual = 0.00464798, Final residual = 0.000224106, No Iterations 6
time step continuity errors : sum local = 1.75717e-05, global = 1.46008e-20, cumulative = -3.82274e-19
DICPCG:  Solving for p_rgh, Initial residual = 0.00104663, Final residual = 9.42483e-08, No Iterations 100
time step continuity errors : sum local = 8.42098e-09, global = 5.11528e-20, cumulative = -3.31121e-19
ExecutionTime = 17.48 s  ClockTime = 17 s

fieldMinMax minMax write:
    min/max(mag(U)) = 0 0.202288

Courant Number mean: 0.0209534 max: 1.01572
Interface Courant Number mean: 0.00276484 max: 0.667546
deltaT = 0.00189734
Time = 0.492411

PIMPLE: iteration 1
smoothSolver:  Solving for alpha.water, Initial residual = 0.0029587, Final residual = 4.87901e-09, No Iterations 3
Phase-1 volume fraction = 0.9684  Min(alpha.water) = 1.38383e-05  Max(alpha.water) = 1
solve the reinitialization equation

solve the reinitialization equation

MULES: Correcting alpha.water
solve the reinitialization equation

solve the reinitialization equation

MULES: Correcting alpha.water
solve the reinitialization equation

Phase-1 volume fraction = 0.9684  Min(alpha.water) = 7.62851e-06  Max(alpha.water) = 1
DICPCG:  Solving for p_rgh, Initial residual = 0.0579884, Final residual = 0.0019422, No Iterations 2
time step continuity errors : sum local = 0.00015161, global = 2.78066e-20, cumulative = -3.03315e-19
DICPCG:  Solving for p_rgh, Initial residual = 0.00357735, Final residual = 0.00016654, No Iterations 9
time step continuity errors : sum local = 1.30388e-05, global = -1.77897e-20, cumulative = -3.21104e-19
DICPCG:  Solving for p_rgh, Initial residual = 0.000743355, Final residual = 8.11712e-08, No Iterations 155
time step continuity errors : sum local = 6.35413e-09, global = -6.17855e-20, cumulative = -3.8289e-19
ExecutionTime = 17.54 s  ClockTime = 17 s

fieldMinMax minMax write:
    min/max(mag(U)) = 0 0.222484

Courant Number mean: 0.0211641 max: 1.05722
Interface Courant Number mean: 0.00282854 max: 0.595465
deltaT = 0.00189734
Time = 0.494308

PIMPLE: iteration 1
smoothSolver:  Solving for alpha.water, Initial residual = 0.0029407, Final residual = 4.68653e-09, No Iterations 3
Phase-1 volume fraction = 0.9684  Min(alpha.water) = 1.37874e-05  Max(alpha.water) = 1
solve the reinitialization equation

solve the reinitialization equation

MULES: Correcting alpha.water
solve the reinitialization equation

solve the reinitialization equation

MULES: Correcting alpha.water
solve the reinitialization equation

Phase-1 volume fraction = 0.9684  Min(alpha.water) = 1.25593e-05  Max(alpha.water) = 1
DICPCG:  Solving for p_rgh, Initial residual = 0.0727459, Final residual = 0.00209598, No Iterations 2
time step continuity errors : sum local = 0.000157452, global = 1.51892e-20, cumulative = -3.67701e-19
DICPCG:  Solving for p_rgh, Initial residual = 0.00614038, Final residual = 0.000299035, No Iterations 7
time step continuity errors : sum local = 2.24992e-05, global = -3.74161e-20, cumulative = -4.05117e-19
DICPCG:  Solving for p_rgh, Initial residual = 0.00162197, Final residual = 9.68533e-08, No Iterations 163
time step continuity errors : sum local = 7.28162e-09, global = -2.32154e-20, cumulative = -4.28332e-19
ExecutionTime = 17.61 s  ClockTime = 17 s

fieldMinMax minMax write:
    min/max(mag(U)) = 0 0.226316

Courant Number mean: 0.0212305 max: 1.07606
Interface Courant Number mean: 0.00289127 max: 0.646395
deltaT = 0.00189734
Time = 0.496205

PIMPLE: iteration 1
smoothSolver:  Solving for alpha.water, Initial residual = 0.00359565, Final residual = 5.66156e-09, No Iterations 3
Phase-1 volume fraction = 0.9684  Min(alpha.water) = 1.36338e-05  Max(alpha.water) = 1
solve the reinitialization equation

solve the reinitialization equation

MULES: Correcting alpha.water
solve the reinitialization equation

solve the reinitialization equation

MULES: Correcting alpha.water
solve the reinitialization equation

Phase-1 volume fraction = 0.9684  Min(alpha.water) = 1.19678e-05  Max(alpha.water) = 1
DICPCG:  Solving for p_rgh, Initial residual = 0.159811, Final residual = 0.0043788, No Iterations 2
time step continuity errors : sum local = 0.000318089, global = -1.60213e-20, cumulative = -4.44353e-19
DICPCG:  Solving for p_rgh, Initial residual = 0.0123262, Final residual = 0.000588128, No Iterations 6
time step continuity errors : sum local = 4.23202e-05, global = -2.19393e-20, cumulative = -4.66293e-19
DICPCG:  Solving for p_rgh, Initial residual = 0.00327438, Final residual = 8.93832e-08, No Iterations 165
time step continuity errors : sum local = 6.40806e-09, global = 2.90498e-20, cumulative = -4.37243e-19
ExecutionTime = 17.67 s  ClockTime = 17 s

fieldMinMax minMax write:
    min/max(mag(U)) = 0 0.317805

Courant Number mean: 0.0217761 max: 1.38481
Interface Courant Number mean: 0.00305788 max: 1.10072
deltaT = 0.00126489
Time = 0.49747

PIMPLE: iteration 1
smoothSolver:  Solving for alpha.water, Initial residual = 0.00307886, Final residual = 7.17644e-10, No Iterations 3
Phase-1 volume fraction = 0.9684  Min(alpha.water) = 1.25951e-05  Max(alpha.water) = 1
solve the reinitialization equation

solve the reinitialization equation

MULES: Correcting alpha.water
solve the reinitialization equation

solve the reinitialization equation

MULES: Correcting alpha.water
solve the reinitialization equation

Phase-1 volume fraction = 0.9684  Min(alpha.water) = 1.20995e-05  Max(alpha.water) = 1
DICPCG:  Solving for p_rgh, Initial residual = 0.195474, Final residual = 0.00507313, No Iterations 2
time step continuity errors : sum local = 0.000201164, global = -1.10281e-20, cumulative = -4.48271e-19
DICPCG:  Solving for p_rgh, Initial residual = 0.0130999, Final residual = 0.0005703, No Iterations 6
time step continuity errors : sum local = 2.30402e-05, global = 1.54295e-20, cumulative = -4.32842e-19
DICPCG:  Solving for p_rgh, Initial residual = 0.00379437, Final residual = 8.51872e-08, No Iterations 164
time step continuity errors : sum local = 3.43079e-09, global = -5.93375e-21, cumulative = -4.38775e-19
ExecutionTime = 17.73 s  ClockTime = 17 s

fieldMinMax minMax write:
    min/max(mag(U)) = 0 0.22316

Courant Number mean: 0.0139717 max: 0.689391
Interface Courant Number mean: 0.00174033 max: 0.401432
deltaT = 0.00126489
Time = 0.498735

PIMPLE: iteration 1
smoothSolver:  Solving for alpha.water, Initial residual = 0.00195201, Final residual = 2.52955e-10, No Iterations 3
Phase-1 volume fraction = 0.9684  Min(alpha.water) = 1.25365e-05  Max(alpha.water) = 1
solve the reinitialization equation

solve the reinitialization equation

MULES: Correcting alpha.water
solve the reinitialization equation

solve the reinitialization equation

MULES: Correcting alpha.water
solve the reinitialization equation

Phase-1 volume fraction = 0.9684  Min(alpha.water) = 1.23736e-05  Max(alpha.water) = 1
DICPCG:  Solving for p_rgh, Initial residual = 0.0567831, Final residual = 0.00174101, No Iterations 2
time step continuity errors : sum local = 7.66954e-05, global = -2.53632e-20, cumulative = -4.64139e-19
DICPCG:  Solving for p_rgh, Initial residual = 0.00378827, Final residual = 0.00014781, No Iterations 7
time step continuity errors : sum local = 6.52406e-06, global = -6.09926e-21, cumulative = -4.70238e-19
DICPCG:  Solving for p_rgh, Initial residual = 0.000640251, Final residual = 8.95486e-08, No Iterations 158
time step continuity errors : sum local = 3.95745e-09, global = 1.32493e-20, cumulative = -4.56988e-19
ExecutionTime = 17.79 s  ClockTime = 18 s

fieldMinMax minMax write:
    min/max(mag(U)) = 0 0.236953

Courant Number mean: 0.0140553 max: 0.788473
Interface Courant Number mean: 0.00181289 max: 0.485009
deltaT = 0.00126489
Time = 0.5

PIMPLE: iteration 1
smoothSolver:  Solving for alpha.water, Initial residual = 0.00229763, Final residual = 3.10767e-10, No Iterations 3
Phase-1 volume fraction = 0.9684  Min(alpha.water) = 1.25088e-05  Max(alpha.water) = 1
solve the reinitialization equation

solve the reinitialization equation

MULES: Correcting alpha.water
solve the reinitialization equation

solve the reinitialization equation

MULES: Correcting alpha.water
solve the reinitialization equation

Phase-1 volume fraction = 0.9684  Min(alpha.water) = 1.21238e-05  Max(alpha.water) = 1
DICPCG:  Solving for p_rgh, Initial residual = 0.117506, Final residual = 0.00285197, No Iterations 2
time step continuity errors : sum local = 0.00012937, global = 3.80857e-20, cumulative = -4.18903e-19
DICPCG:  Solving for p_rgh, Initial residual = 0.0059201, Final residual = 0.000276149, No Iterations 6
time step continuity errors : sum local = 1.25151e-05, global = -3.18093e-21, cumulative = -4.22084e-19
DICPCG:  Solving for p_rgh, Initial residual = 0.00116371, Final residual = 8.09528e-08, No Iterations 159
time step continuity errors : sum local = 3.66223e-09, global = 2.12281e-20, cumulative = -4.00856e-19
ExecutionTime = 17.87 s  ClockTime = 18 s

fieldMinMax minMax write:
    min/max(mag(U)) = 0 0.237609

End

